*Heading
** Job name: Job-1 Model name: Model-1
** Generated by: Abaqus/CAE Student Edition 6.13-2
*Preprint, echo=NO, model=NO, history=NO, contact=NO
** ----------------------------------------------------------------
** 
** PART INSTANCE: Base-1
** 
*Node
    562,           0.,           6.,           0.
*Nset, nset=Base-1-RefPt_
562, 
*Nset, nset=Base-1_Set-1
562,
*Surface, type=SEGMENTS, name=Base-1_RigidSurface_
START,           0.,           6.
 LINE,          22.,           6.
*Rigid Body, ref node=Base-1-RefPt_, analytical surface=Base-1_RigidSurface_
** ----------------------------------------------------------------
** 
** PART INSTANCE: Det-1
** 
*System
          0.,          6.,          0.,          1.,          6.,          0.
*Node
      1,           0.,           0.
      2,           1.,           0.
      3,           2.,           0.
      4,           3.,           0.
      5,           4.,           0.
      6,           5.,           0.
      7,           6.,           0.
      8,           7.,           0.
      9,           8.,           0.
     10,           9.,           0.
     11,          10.,           0.
     12,           0.,           1.
     13,           1.,           1.
     14,           2.,           1.
     15,           3.,           1.
     16,           4.,           1.
     17,           5.,           1.
     18,           6.,           1.
     19,           7.,           1.
     20,           8.,           1.
** ... 541 like lines cut
*Element, type=CAX4R
  1,   1,   2,  13,  12
  2,   2,   3,  14,  13
  3,   3,   4,  15,  14
  4,   4,   5,  16,  15
  5,   5,   6,  17,  16
  6,   6,   7,  18,  17
  7,   7,   8,  19,  18
  8,   8,   9,  20,  19
  9,   9,  10,  21,  20
 10,  10,  11,  22,  21
 11,  12,  13,  24,  23
 12,  13,  14,  25,  24
 13,  14,  15,  26,  25
 14,  15,  16,  27,  26
 15,  16,  17,  28,  27
 16,  17,  18,  29,  28
 17,  18,  19,  30,  29
 18,  19,  20,  31,  30
 19,  20,  21,  32,  31
 20,  21,  22,  33,  32
** ... 480 like lines cut
*Nset, nset=Det-1_Set-1, generate
   1,  561,    1
*Elset, elset=Det-1_Set-1, generate
   1,  500,    1
*Nset, nset=Det-1_Set-2
 1,
*Elset, elset=_Det-1_cont1_S3, generate
 491,  500,    1
*Surface, type=ELEMENT, name=Det-1_cont1
_Det-1_cont1_S3, S3
*Elset, elset=_Det-1_cont2_S1, generate
  1,  10,   1
*Surface, type=ELEMENT, name=Det-1_cont2
_Det-1_cont2_S1, S1
** Section: sec1
*Solid Section, elset=Det-1_Set-1, material=mat1
,
** ----------------------------------------------------------------
** 
** PART INSTANCE: Plate-1
** 
*System
          0.,         56.,          0.,          1.,         56.,          0.
*Node
    563,           0.,           0.
    564,          25.,           0.
    565,          25.,          10.
    566,   21.9801617,          10.
    567,           0.,          10.
    568,   10.1549997,   7.01000023
    569,           1.,           0.
    570,           2.,           0.
    571,           3.,           0.
    572,           4.,           0.
    573,           5.,           0.
    574,           6.,           0.
    575,           7.,           0.
    576,           8.,           0.
    577,           9.,           0.
    578,          10.,           0.
    579,          11.,           0.
    580,          12.,           0.
    581,          13.,           0.
    582,          14.,           0.
** ... 299 like lines cut
*Element, type=CAX3
501, 699, 661, 700
502, 702, 729, 658
503, 784, 743, 747
504, 776, 821, 826
505, 811, 824, 825
506, 834, 818, 820
507, 835, 820, 833
746, 870, 868, 865
*Element, type=CAX4R
508, 584, 675, 676, 583
509, 654, 643, 642, 652
510, 655, 566, 604, 708
511, 750, 745, 671, 670
512, 656, 644, 653, 804
513, 705, 704, 719, 717
514, 645, 840, 657, 646
515, 611, 659, 702, 610
516, 611, 612, 660, 659
517, 660, 612, 613, 725
518, 725, 701, 651, 650
519, 701, 614, 615, 700
520, 636, 635, 662, 814
521, 579, 580, 838, 666
522, 665, 581, 582, 677
523, 847, 724, 726, 765
524, 667, 569, 570, 684
525, 668, 662, 635, 634
526, 568, 839, 669, 634
527, 592, 564, 593, 692
** ... 259 like lines cut
*Nset, nset=Plate-1_Set-1, generate
 563,  881,    1
*Elset, elset=Plate-1_Set-1, generate
 501,  787,    1
*Nset, nset=Plate-1_Force
565,
*Nset, nset=Plate-1_Force1
565,566,602,603
*Elset, elset=Plate-1_Force1
 549, 556, 662
*Elset, elset=_Plate-1_cont_S4
 508, 532, 533, 534, 539, 541, 544, 585, 597, 601, 608, 614, 618, 627
*Elset, elset=_Plate-1_cont_S1
 521, 527, 743
*Elset, elset=_Plate-1_cont_S2
 522, 524, 530, 546, 575, 602, 606, 613
*Surface, type=ELEMENT, name=Plate-1_cont
_Plate-1_cont_S4, S4
_Plate-1_cont_S1, S1
_Plate-1_cont_S2, S2
** Section: sec2
*Solid Section, elset=Plate-1_Set-1, material=mat2
,
*System
*Nset, nset=_PickedSet11, generate
   1,  551,   11
*Nset, nset=_PickedSet11
563,567,625,626,627,628,629,630,631,632,633
*Elset, elset=_PickedSet11, generate
   1,  491,   10
*Elset, elset=_PickedSet11
 545, 548, 558, 559, 575, 576, 579, 580, 616, 640
** 
** MATERIALS
** 
** material of shaiba
*Material, name=mat1
*Elastic
100000., 0.3
*Plastic
120.,0.
** material of disc
*Material, name=mat2
*Elastic
200000., 0.3
*Plastic
240.,0.
** 
** INTERACTION PROPERTIES
** 
*Surface Interaction, name=IntProp-1
1.,
*Friction, slip tolerance=0.005
 0.2,
*Surface Interaction, name=IntProp-2
1.,
*Friction, slip tolerance=0.005
 0.4,
** 
** BOUNDARY CONDITIONS
** 
** Name: BC-1 Type: Symmetry/Antisymmetry/Encastre
*Boundary
Base-1_Set-1, ENCASTRE
** Name: BC-2 Type: Symmetry/Antisymmetry/Encastre
*Boundary
_PickedSet11, XSYMM
** 
** INTERACTIONS
** 
** Interaction: Int-1
*Contact Pair, interaction=IntProp-1, type=SURFACE TO SURFACE
Det-1_cont2, Base-1_RigidSurface_
** Interaction: Int-2
*Contact Pair, interaction=IntProp-2, type=SURFACE TO SURFACE
Det-1_cont1, Plate-1_cont
** ----------------------------------------------------------------
** 
** STEP: Step-1
** 
*Step, name=Step-1, nlgeom=YES, inc=1000
*Static
0.01, 1., 1e-05, 1.
** 
** BOUNDARY CONDITIONS
** 
** Name: BC-3 Type: Displacement/Rotation
*Boundary
Plate-1_Force1, 2, 2, -16.7
** 
** OUTPUT REQUESTS
** 
*Restart, write, frequency=0
** 
** FIELD OUTPUT: F-Output-1
** 
*Output, field, variable=PRESELECT
** 
** HISTORY OUTPUT: H-Output-2
** 
*Output, history
*Node Output, nset=Plate-1_Force
RF1, RF2, RF3, RM1, RM2, RM3, U1, U2
U3, UR1, UR2, UR3
** 
** HISTORY OUTPUT: H-Output-1
** 
*Output, history, variable=PRESELECT
*End Step
** ----------------------------------------------------------------
** 
** STEP: Step-2
** 
*Step, name=Step-2, nlgeom=YES, inc=1000
razgruzka
*Static
0.01, 1., 1e-05, 0.01
** 
** BOUNDARY CONDITIONS
** 
** Name: BC-3 Type: Displacement/Rotation
*Boundary
Plate-1_Force1, 2, 2
** Name: BC-4 Type: Symmetry/Antisymmetry/Encastre
*Boundary
Det-1_Set-2, PINNED
** 
** OUTPUT REQUESTS
** 
*Restart, write, frequency=0
** 
** FIELD OUTPUT: F-Output-1
** 
*Output, field, variable=PRESELECT
** 
** HISTORY OUTPUT: H-Output-2, H-Output-2-Copy
** 
*Output, history
*Node Output, nset=Plate-1_Force
RF1, RF2, RF3, RM1, RM2, RM3, U1, U2
U3, UR1, UR2, UR3
** 
** HISTORY OUTPUT: H-Output-1
** 
*Output, history, variable=PRESELECT
*End Step
