1

   Abaqus 6.13-2                                  Date 20-ноя-2019   Time 13:52:04
   

                                                                                 
                                                                                 
 STEP    1     INCREMENT     1     STEP TIME    0.00    


                        S T E P       1     S T A T I C   A N A L Y S I S


                                                                                          

     AUTOMATIC TIME CONTROL WITH -
          A SUGGESTED INITIAL TIME INCREMENT OF                1.000E-02
          AND A TOTAL TIME PERIOD OF                            1.00    
          THE MINIMUM TIME INCREMENT ALLOWED IS                1.000E-05
          THE MAXIMUM TIME INCREMENT ALLOWED IS                 1.00    

     LINEAR EQUATION SOLVER TYPE         DIRECT SPARSE

 CONVERGENCE TOLERANCE PARAMETERS FOR FORCE    
     CRITERION FOR RESIDUAL FORCE     FOR A NONLINEAR PROBLEM          5.000E-03
     CRITERION FOR DISP.    CORRECTION IN A NONLINEAR PROBLEM          1.000E-02
     INITIAL VALUE OF TIME AVERAGE FORCE                               1.000E-02
     AVERAGE FORCE     IS TIME AVERAGE FORCE    
     ALTERNATE CRIT. FOR RESIDUAL FORCE     FOR A NONLINEAR PROBLEM    2.000E-02
     CRITERION FOR ZERO FORCE     RELATIVE TO TIME AVRG. FORCE         1.000E-05
     CRITERION FOR RESIDUAL FORCE     WHEN THERE IS ZERO FLUX          1.000E-05
     CRITERION FOR DISP.    CORRECTION WHEN THERE IS ZERO FLUX         1.000E-03
     CRITERION FOR RESIDUAL FORCE     FOR A LINEAR INCREMENT           1.000E-08
     FIELD CONVERSION RATIO                                             1.00    
     CRITERION FOR ZERO FORCE     REL. TO TIME AVRG. MAX. FORCE        1.000E-05
     CRITERION FOR ZERO DISP.    RELATIVE TO CHARACTERISTIC LENGTH     1.000E-08

 CONVERGENCE TOLERANCE PARAMETERS FOR MOMENT   
     CRITERION FOR RESIDUAL MOMENT    FOR A NONLINEAR PROBLEM          5.000E-03
     CRITERION FOR ROTATION CORRECTION IN A NONLINEAR PROBLEM          1.000E-02
     INITIAL VALUE OF TIME AVERAGE MOMENT                              1.000E-02
     AVERAGE MOMENT    IS TIME AVERAGE MOMENT   
     ALTERNATE CRIT. FOR RESIDUAL MOMENT    FOR A NONLINEAR PROBLEM    2.000E-02
     CRITERION FOR ZERO MOMENT    RELATIVE TO TIME AVRG. MOMENT        1.000E-05
     CRITERION FOR RESIDUAL MOMENT    WHEN THERE IS ZERO FLUX          1.000E-05
     CRITERION FOR ROTATION CORRECTION WHEN THERE IS ZERO FLUX         1.000E-03
     CRITERION FOR RESIDUAL MOMENT    FOR A LINEAR INCREMENT           1.000E-08
     FIELD CONVERSION RATIO                                             1.00    
     CRITERION FOR ZERO MOMENT    REL. TO TIME AVRG. MAX. MOMENT       1.000E-05

     VOLUMETRIC STRAIN COMPATIBILITY TOLERANCE FOR HYBRID SOLIDS       1.000E-05
     AXIAL STRAIN COMPATIBILITY TOLERANCE FOR HYBRID BEAMS             1.000E-05
     TRANS. SHEAR STRAIN COMPATIBILITY TOLERANCE FOR HYBRID BEAMS      1.000E-05
     SOFT CONTACT CONSTRAINT COMPATIBILITY TOLERANCE FOR P>P0          5.000E-03
     SOFT CONTACT CONSTRAINT COMPATIBILITY TOLERANCE FOR P=0.0         0.100    
     CONTACT FORCE ERROR TOLERANCE FOR CONVERT SDI=YES                 1.00    
     DISPLACEMENT COMPATIBILITY TOLERANCE FOR DCOUP ELEMENTS           1.000E-05
     ROTATION COMPATIBILITY TOLERANCE FOR DCOUP ELEMENTS               1.000E-05

 EQUILIBRIUM WILL BE CHECKED FOR SEVERE DISCONTINUITY ITERATIONS

 TIME INCREMENTATION CONTROL PARAMETERS:
     FIRST EQUILIBRIUM ITERATION FOR CONSECUTIVE DIVERGENCE CHECK              4
     EQUILIBRIUM ITERATION AT WHICH LOG. CONVERGENCE RATE CHECK BEGINS         8
     EQUILIBRIUM ITERATION AFTER WHICH ALTERNATE RESIDUAL IS USED              9
     MAXIMUM EQUILIBRIUM ITERATIONS ALLOWED                                   16
     EQUILIBRIUM ITERATION COUNT FOR CUT-BACK IN NEXT INCREMENT               10
     MAXIMUM EQUILIB. ITERS IN TWO INCREMENTS FOR TIME INCREMENT INCREASE      4
     MAXIMUM ITERATIONS FOR SEVERE DISCONTINUITIES                            50
     MAXIMUM CUT-BACKS ALLOWED IN AN INCREMENT                                 5
     MAXIMUM DISCON. ITERS IN TWO INCREMENTS FOR TIME INCREMENT INCREASE      50
     MAXIMUM CONTACT AUGMENTATIONS FOR *SURFACE BEHAVIOR,AUGMENTED LAGRANGE   50
     CUT-BACK FACTOR AFTER DIVERGENCE                                 0.2500    
     CUT-BACK FACTOR FOR TOO SLOW CONVERGENCE                         0.5000    
     CUT-BACK FACTOR AFTER TOO MANY EQUILIBRIUM ITERATIONS            0.7500    
     CUT-BACK FACTOR AFTER TOO MANY SEVERE DISCONTINUITY ITERATIONS   0.2500    
     CUT-BACK FACTOR AFTER PROBLEMS IN ELEMENT ASSEMBLY               0.2500    
     INCREASE FACTOR AFTER TWO INCREMENTS THAT CONVERGE QUICKLY        1.500    
     MAX. TIME INCREMENT INCREASE FACTOR ALLOWED                       1.500    
     MAX. TIME INCREMENT INCREASE FACTOR ALLOWED (DYNAMICS)            1.250    
     MAX. TIME INCREMENT INCREASE FACTOR ALLOWED (DIFFUSION)           2.000    
     MINIMUM TIME INCREMENT RATIO FOR EXTRAPOLATION TO OCCUR          0.1000    
     MAX. RATIO OF TIME INCREMENT TO STABILITY LIMIT                   1.000    
     FRACTION OF STABILITY LIMIT FOR NEW TIME INCREMENT               0.9500    
     TIME INCREMENT INCREASE FACTOR BEFORE A TIME POINT                1.000    

 CONTACT CONTROLS APPLIED TO ALL CONTACT PAIRS:
     GLOBAL STABILIZATION CONTROL IS NOT USED
     RELATIVE PENETRATION TOLERANCE FOR AUGMENTED LAGRANGE CONTACT:
          FINITE-SLIDING SURFACE-TO-SURFACE                            5.000E-02
          OTHERWISE                                                    1.000E-03

          PRINT OF INCREMENT NUMBER, TIME, ETC., EVERY    1  INCREMENTS

     THE MAXIMUM NUMBER OF INCREMENTS IN THIS STEP IS                    1000

          LARGE DISPLACEMENT THEORY WILL BE USED

          UNSYMMETRIC MATRIX STORAGE AND SOLUTION WILL BE USED

     LINEAR EXTRAPOLATION WILL BE USED

     CHARACTERISTIC ELEMENT LENGTH     0.980    

     DETAILS REGARDING ACTUAL SOLUTION WAVEFRONT REQUESTED

     DETAILED OUTPUT OF DIAGNOSTICS TO DATABASE REQUESTED

     PRINT OF INCREMENT NUMBER, TIME, ETC., TO THE MESSAGE FILE EVERY     1  INCREMENTS

     EQUATIONS ARE BEING REORDERED TO MINIMIZE WAVEFRONT

     COLLECTING MODEL CONSTRAINT INFORMATION FOR OVERCONSTRAINT CHECKS

     COLLECTING STEP CONSTRAINT INFORMATION FOR OVERCONSTRAINT CHECKS


  INCREMENT     1 STARTS. ATTEMPT NUMBER  1, TIME INCREMENT  1.000E-02

  NUMBER OF EQUATIONS =     1763     NUMBER OF FLOATING PT. OPERATIONS =  4.18E+06

     CHECK POINT   START OF SOLVER    

     CHECK POINT  END OF SOLVER       

       ELAPSED USER TIME (SEC)      =   0.0000    
       ELAPSED SYSTEM TIME (SEC)    =  0.10000    
       ELAPSED TOTAL CPU TIME (SEC) =  0.10000    
       ELAPSED WALLCLOCK TIME (SEC) =          0

               CONVERGENCE CHECKS FOR EQUILIBRIUM ITERATION     1

   MAX. PENETRATION ERROR 1.29085E-06 AT NODE DET-1.561 OF CONTACT PAIR 
   (ASSEMBLY_DET-1_CONT1,ASSEMBLY_PLATE-1_CONT)
   MAX. CONTACT FORCE ERROR 2.48422     AT NODE DET-1.561 OF CONTACT PAIR 
   (ASSEMBLY_DET-1_CONT1,ASSEMBLY_PLATE-1_CONT)
          THE CONTACT CONSTRAINTS HAVE CONVERGED.

 AVERAGE FORCE                      2.049E+03   TIME AVG. FORCE       2.049E+03
 LARGEST RESIDUAL FORCE            -9.590E+03   AT NODE         15   DOF  1
   INSTANCE: PLATE-1                                                                         
 LARGEST INCREMENT OF DISP.        -0.170       AT NODE         37   DOF  2
   INSTANCE: PLATE-1                                                                         
 LARGEST CORRECTION TO DISP.       -0.170       AT NODE         37   DOF  2
   INSTANCE: PLATE-1                                                                         
          FORCE     EQUILIBRIUM NOT ACHIEVED WITHIN TOLERANCE.

 AVERAGE MOMENT                     4.252E+04   TIME AVG. MOMENT      4.252E+04
 ALL MOMENT    RESIDUALS ARE ZERO
 LARGEST INCREMENT OF ROTATION     -4.677E-31   AT NODE          1   DOF  6
   INSTANCE: BASE-1                                                                          
 LARGEST CORRECTION TO ROTATION    -4.677E-31   AT NODE          1   DOF  6
   INSTANCE: BASE-1                                                                          
          THE MOMENT    EQUILIBRIUM RESPONSE WAS LINEAR IN THIS INCREMENT

  NUMBER OF EQUATIONS =     1763     NUMBER OF FLOATING PT. OPERATIONS =  4.25E+06

     CHECK POINT   START OF SOLVER    

     CHECK POINT  END OF SOLVER       

       ELAPSED USER TIME (SEC)      =   0.0000    
       ELAPSED SYSTEM TIME (SEC)    =   0.0000    
       ELAPSED TOTAL CPU TIME (SEC) =   0.0000    
       ELAPSED WALLCLOCK TIME (SEC) =          0

               CONVERGENCE CHECKS FOR EQUILIBRIUM ITERATION     2

   MAX. PENETRATION ERROR -5.62612E-06 AT NODE DET-1.561 OF CONTACT PAIR 
   (ASSEMBLY_DET-1_CONT1,ASSEMBLY_PLATE-1_CONT)
   MAX. CONTACT FORCE ERROR -10.8346      AT NODE DET-1.561 OF CONTACT PAIR 
   (ASSEMBLY_DET-1_CONT1,ASSEMBLY_PLATE-1_CONT)
          THE CONTACT CONSTRAINTS HAVE CONVERGED.

 AVERAGE FORCE                      1.260E+03   TIME AVG. FORCE       1.260E+03
 LARGEST RESIDUAL FORCE            -2.750E+04   AT NODE        131   DOF  2
   INSTANCE: PLATE-1                                                                         
 LARGEST INCREMENT OF DISP.        -0.169       AT NODE          2   DOF  2
   INSTANCE: PLATE-1                                                                         
 LARGEST CORRECTION TO DISP.       -5.421E-02   AT NODE        452   DOF  2
   INSTANCE: DET-1                                                                           
          FORCE     EQUILIBRIUM NOT ACHIEVED WITHIN TOLERANCE.

 AVERAGE MOMENT                     2.392E+04   TIME AVG. MOMENT      2.392E+04
 ALL MOMENT    RESIDUALS ARE ZERO
 LARGEST INCREMENT OF ROTATION     -7.308E-31   AT NODE          1   DOF  6
   INSTANCE: BASE-1                                                                          
 LARGEST CORRECTION TO ROTATION    -2.631E-31   AT NODE          1   DOF  6
   INSTANCE: BASE-1                                                                          
          THE MOMENT    EQUILIBRIUM EQUATIONS HAVE CONVERGED

  NUMBER OF EQUATIONS =     1763     NUMBER OF FLOATING PT. OPERATIONS =  4.25E+06

     CHECK POINT   START OF SOLVER    

     CHECK POINT  END OF SOLVER       

       ELAPSED USER TIME (SEC)      =   0.0000    
       ELAPSED SYSTEM TIME (SEC)    =   0.0000    
       ELAPSED TOTAL CPU TIME (SEC) =   0.0000    
       ELAPSED WALLCLOCK TIME (SEC) =          0

                    2 SEVERE DISCONTINUITIES OCCURRED DURING THIS ITERATION.
                    1 POINTS CHANGED FROM CLOSED TO OPEN
                    1 POINTS CHANGED FROM STICKING TO SLIPPING

               CONVERGENCE CHECKS FOR SEVERE DISCONTINUITY ITERATION     1

   MAX. PENETRATION ERROR -136.052E-06   AT NODE DET-1.561 OF CONTACT PAIR 
   (ASSEMBLY_DET-1_CONT1,ASSEMBLY_PLATE-1_CONT)
   MAX. CONTACT FORCE ERROR -212.662       AT NODE DET-1.561 OF CONTACT PAIR 
   (ASSEMBLY_DET-1_CONT1,ASSEMBLY_PLATE-1_CONT)
          THE CONTACT CONSTRAINT ERRORS ARE WITHIN THE TOLERANCES.

 AVERAGE FORCE                      1.432E+03   TIME AVG. FORCE       1.432E+03
 LARGEST RESIDUAL FORCE            -2.024E+04   AT NODE        116   DOF  2
   INSTANCE: PLATE-1                                                                         
 LARGEST INCREMENT OF DISP.        -0.170       AT NODE          2   DOF  2
   INSTANCE: PLATE-1                                                                         
 LARGEST CORRECTION TO DISP.        4.711E-02   AT NODE        560   DOF  2
   INSTANCE: DET-1                                                                           
          FORCE     EQUILIBRIUM NOT ACHIEVED WITHIN TOLERANCE.

 AVERAGE MOMENT                     2.371E+04   TIME AVG. MOMENT      2.371E+04
 ALL MOMENT    RESIDUALS ARE ZERO
 LARGEST INCREMENT OF ROTATION     -9.916E-31   AT NODE          1   DOF  6
   INSTANCE: BASE-1                                                                          
 LARGEST CORRECTION TO ROTATION    -2.608E-31   AT NODE          1   DOF  6
   INSTANCE: BASE-1                                                                          
          THE MOMENT    EQUILIBRIUM EQUATIONS HAVE CONVERGED

  NUMBER OF EQUATIONS =     1763     NUMBER OF FLOATING PT. OPERATIONS =  4.25E+06

     CHECK POINT   START OF SOLVER    

     CHECK POINT  END OF SOLVER       

       ELAPSED USER TIME (SEC)      =   0.0000    
       ELAPSED SYSTEM TIME (SEC)    =   0.0000    
       ELAPSED TOTAL CPU TIME (SEC) =   0.0000    
       ELAPSED WALLCLOCK TIME (SEC) =          0

 ***WARNING: THE STRAIN INCREMENT HAS EXCEEDED FIFTY TIMES THE STRAIN TO CAUSE 
             FIRST YIELD AT 10 POINTS

                   10 SEVERE DISCONTINUITIES OCCURRED DURING THIS ITERATION.
                    6 POINTS CHANGED FROM CLOSED TO OPEN
                    4 POINTS CHANGED FROM STICKING TO SLIPPING

               CONVERGENCE CHECKS FOR SEVERE DISCONTINUITY ITERATION     2

   MAX. PENETRATION ERROR -6.05555E-03 AT NODE DET-1.561 OF CONTACT PAIR 
   (ASSEMBLY_DET-1_CONT1,ASSEMBLY_PLATE-1_CONT)
   MAX. CONTACT FORCE ERROR -22.1938E+03  AT NODE DET-1.555 OF CONTACT PAIR 
   (ASSEMBLY_DET-1_CONT1,ASSEMBLY_PLATE-1_CONT)
          PENETRATION ERROR TOO LARGE COMPARED TO DISPLACEMENT INCREMENT.

 AVERAGE FORCE                      3.316E+03   TIME AVG. FORCE       3.316E+03
 LARGEST RESIDUAL FORCE            -9.735E+05   AT NODE         16   DOF  2
   INSTANCE: PLATE-1                                                                         
 LARGEST INCREMENT OF DISP.        -0.462       AT NODE         16   DOF  1
   INSTANCE: PLATE-1                                                                         
 LARGEST CORRECTION TO DISP.       -0.487       AT NODE         16   DOF  1
   INSTANCE: PLATE-1                                                                         
          FORCE     EQUILIBRIUM NOT ACHIEVED WITHIN TOLERANCE.

 AVERAGE MOMENT                     2.422E+04   TIME AVG. MOMENT      2.422E+04
 ALL MOMENT    RESIDUALS ARE ZERO
 LARGEST INCREMENT OF ROTATION     -1.258E-30   AT NODE          1   DOF  6
   INSTANCE: BASE-1                                                                          
 LARGEST CORRECTION TO ROTATION    -2.664E-31   AT NODE          1   DOF  6
   INSTANCE: BASE-1                                                                          
          THE MOMENT    EQUILIBRIUM EQUATIONS HAVE CONVERGED

  NUMBER OF EQUATIONS =     1763     NUMBER OF FLOATING PT. OPERATIONS =  4.09E+06

     CHECK POINT   START OF SOLVER    

     CHECK POINT  END OF SOLVER       

       ELAPSED USER TIME (SEC)      =   0.0000    
       ELAPSED SYSTEM TIME (SEC)    =   0.0000    
       ELAPSED TOTAL CPU TIME (SEC) =   0.0000    
       ELAPSED WALLCLOCK TIME (SEC) =          0
 

 ***WARNING: THE SYSTEM MATRIX HAS 5 NEGATIVE EIGENVALUES.

     NEGATIVE EIGENVALUES MEAN THAT THE SYSTEM MATRIX IS NOT 
     POSITIVE DEFINITE:
     FOR EXAMPLE, A BIFURCATION (BUCKLING) LOAD MAY HAVE BEEN EXCEEDED.

 ***WARNING: THE STRAIN INCREMENT HAS EXCEEDED FIFTY TIMES THE STRAIN TO CAUSE 
             FIRST YIELD AT 40 POINTS

                    2 SEVERE DISCONTINUITIES OCCURRED DURING THIS ITERATION.
                    2 POINTS CHANGED FROM CLOSED TO OPEN

               CONVERGENCE CHECKS FOR SEVERE DISCONTINUITY ITERATION     3

   MAX. PENETRATION ERROR 7.06034E-03 AT NODE DET-1.559 OF CONTACT PAIR 
   (ASSEMBLY_DET-1_CONT1,ASSEMBLY_PLATE-1_CONT)
   MAX. CONTACT FORCE ERROR 26.8755E+03  AT NODE DET-1.559 OF CONTACT PAIR 
   (ASSEMBLY_DET-1_CONT1,ASSEMBLY_PLATE-1_CONT)
          PENETRATION ERROR TOO LARGE COMPARED TO DISPLACEMENT INCREMENT.

 AVERAGE FORCE                      4.589E+03   TIME AVG. FORCE       4.589E+03
 LARGEST RESIDUAL FORCE             1.659E+06   AT NODE        537   DOF  2
   INSTANCE: DET-1                                                                           
 LARGEST INCREMENT OF DISP.        -0.867       AT NODE        560   DOF  2
   INSTANCE: DET-1                                                                           
 LARGEST CORRECTION TO DISP.        0.576       AT NODE        538   DOF  1
   INSTANCE: DET-1                                                                           
          FORCE     EQUILIBRIUM NOT ACHIEVED WITHIN TOLERANCE.

 AVERAGE MOMENT                     2.455E+04   TIME AVG. MOMENT      2.455E+04
 ALL MOMENT    RESIDUALS ARE ZERO
 LARGEST INCREMENT OF ROTATION     -1.528E-30   AT NODE          1   DOF  6
   INSTANCE: BASE-1                                                                          
 LARGEST CORRECTION TO ROTATION    -2.701E-31   AT NODE          1   DOF  6
   INSTANCE: BASE-1                                                                          
          THE MOMENT    EQUILIBRIUM EQUATIONS HAVE CONVERGED

  NUMBER OF EQUATIONS =     1763     NUMBER OF FLOATING PT. OPERATIONS =  4.00E+06

     CHECK POINT   START OF SOLVER    

     CHECK POINT  END OF SOLVER       

       ELAPSED USER TIME (SEC)      =  0.10000    
       ELAPSED SYSTEM TIME (SEC)    =   0.0000    
       ELAPSED TOTAL CPU TIME (SEC) =  0.10000    
       ELAPSED WALLCLOCK TIME (SEC) =          0
 

 ***WARNING: THE SYSTEM MATRIX HAS 17 NEGATIVE EIGENVALUES.
             EXPLANATIONS ARE SUGGESTED AFTER THE FIRST OCCURRENCE OF THIS MESSAGE.

 ***WARNING: THE STRAIN INCREMENT HAS EXCEEDED FIFTY TIMES THE STRAIN TO CAUSE 
             FIRST YIELD AT 451 POINTS

 ***WARNING: THE STRAIN INCREMENT IS SO LARGE THAT THE PROGRAM WILL NOT ATTEMPT 
             THE PLASTICITY CALCULATION AT 8 POINTS
 

 ***NOTE: MATERIAL CALCULATIONS FAILED TO CONVERGE OR WERE NOT ATTEMPTED AT ONE 
          OR MORE POINTS. CONVERGENCE IS JUDGED UNLIKELY.


  INCREMENT     1 STARTS. ATTEMPT NUMBER  2, TIME INCREMENT  2.500E-03

  NUMBER OF EQUATIONS =     1763     NUMBER OF FLOATING PT. OPERATIONS =  4.18E+06

     CHECK POINT   START OF SOLVER    

     CHECK POINT  END OF SOLVER       

       ELAPSED USER TIME (SEC)      =   0.0000    
       ELAPSED SYSTEM TIME (SEC)    =   0.0000    
       ELAPSED TOTAL CPU TIME (SEC) =   0.0000    
       ELAPSED WALLCLOCK TIME (SEC) =          0

               CONVERGENCE CHECKS FOR EQUILIBRIUM ITERATION     1

   MAX. PENETRATION ERROR 80.5303E-09  AT NODE DET-1.561 OF CONTACT PAIR 
   (ASSEMBLY_DET-1_CONT1,ASSEMBLY_PLATE-1_CONT)
   MAX. CONTACT FORCE ERROR 155.282E-03   AT NODE DET-1.561 OF CONTACT PAIR 
   (ASSEMBLY_DET-1_CONT1,ASSEMBLY_PLATE-1_CONT)
          THE CONTACT CONSTRAINTS HAVE CONVERGED.

 AVERAGE FORCE                       551.       TIME AVG. FORCE        551.    
 LARGEST RESIDUAL FORCE             2.637E+03   AT NODE        560   DOF  1
   INSTANCE: DET-1                                                                           
 LARGEST INCREMENT OF DISP.        -4.261E-02   AT NODE         37   DOF  2
   INSTANCE: PLATE-1                                                                         
 LARGEST CORRECTION TO DISP.       -4.261E-02   AT NODE         37   DOF  2
   INSTANCE: PLATE-1                                                                         
          FORCE     EQUILIBRIUM NOT ACHIEVED WITHIN TOLERANCE.

 AVERAGE MOMENT                     1.063E+04   TIME AVG. MOMENT      1.063E+04
 ALL MOMENT    RESIDUALS ARE ZERO
 LARGEST INCREMENT OF ROTATION     -1.169E-31   AT NODE          1   DOF  6
   INSTANCE: BASE-1                                                                          
 LARGEST CORRECTION TO ROTATION    -1.169E-31   AT NODE          1   DOF  6
   INSTANCE: BASE-1                                                                          
          THE MOMENT    EQUILIBRIUM RESPONSE WAS LINEAR IN THIS INCREMENT

  NUMBER OF EQUATIONS =     1763     NUMBER OF FLOATING PT. OPERATIONS =  4.25E+06

     CHECK POINT   START OF SOLVER    

     CHECK POINT  END OF SOLVER       

       ELAPSED USER TIME (SEC)      =  0.10000    
       ELAPSED SYSTEM TIME (SEC)    =   0.0000    
       ELAPSED TOTAL CPU TIME (SEC) =  0.10000    
       ELAPSED WALLCLOCK TIME (SEC) =          0

               CONVERGENCE CHECKS FOR EQUILIBRIUM ITERATION     2

   MAX. PENETRATION ERROR 663.011E-09   AT NODE DET-1.561 OF CONTACT PAIR 
   (ASSEMBLY_DET-1_CONT1,ASSEMBLY_PLATE-1_CONT)
   MAX. CONTACT FORCE ERROR 1.84380     AT NODE DET-1.560 OF CONTACT PAIR 
   (ASSEMBLY_DET-1_CONT1,ASSEMBLY_PLATE-1_CONT)
          THE CONTACT CONSTRAINTS HAVE CONVERGED.

 AVERAGE FORCE                       528.       TIME AVG. FORCE        528.    
 LARGEST RESIDUAL FORCE              237.       AT NODE        561   DOF  1
   INSTANCE: DET-1                                                                           
 LARGEST INCREMENT OF DISP.        -4.267E-02   AT NODE          2   DOF  2
   INSTANCE: PLATE-1                                                                         
 LARGEST CORRECTION TO DISP.        2.555E-03   AT NODE        561   DOF  1
   INSTANCE: DET-1                                                                           
          FORCE     EQUILIBRIUM NOT ACHIEVED WITHIN TOLERANCE.

 AVERAGE MOMENT                     9.793E+03   TIME AVG. MOMENT      9.793E+03
 ALL MOMENT    RESIDUALS ARE ZERO
 LARGEST INCREMENT OF ROTATION     -2.247E-31   AT NODE          1   DOF  6
   INSTANCE: BASE-1                                                                          
 LARGEST CORRECTION TO ROTATION    -1.077E-31   AT NODE          1   DOF  6
   INSTANCE: BASE-1                                                                          
          THE MOMENT    EQUILIBRIUM EQUATIONS HAVE CONVERGED

  NUMBER OF EQUATIONS =     1763     NUMBER OF FLOATING PT. OPERATIONS =  4.25E+06

     CHECK POINT   START OF SOLVER    

     CHECK POINT  END OF SOLVER       

       ELAPSED USER TIME (SEC)      =   0.0000    
       ELAPSED SYSTEM TIME (SEC)    =   0.0000    
       ELAPSED TOTAL CPU TIME (SEC) =   0.0000    
       ELAPSED WALLCLOCK TIME (SEC) =          0

               CONVERGENCE CHECKS FOR EQUILIBRIUM ITERATION     3

   MAX. PENETRATION ERROR 10.1803E-09  AT NODE DET-1.561 OF CONTACT PAIR 
   (ASSEMBLY_DET-1_CONT1,ASSEMBLY_PLATE-1_CONT)
   MAX. CONTACT FORCE ERROR 19.6444E-03  AT NODE DET-1.561 OF CONTACT PAIR 
   (ASSEMBLY_DET-1_CONT1,ASSEMBLY_PLATE-1_CONT)
          THE CONTACT CONSTRAINTS HAVE CONVERGED.

 AVERAGE FORCE                       528.       TIME AVG. FORCE        528.    
 LARGEST RESIDUAL FORCE             -1.92       AT NODE         16   DOF  1
   INSTANCE: PLATE-1                                                                         
 LARGEST INCREMENT OF DISP.        -4.267E-02   AT NODE          2   DOF  2
   INSTANCE: PLATE-1                                                                         
 LARGEST CORRECTION TO DISP.        2.352E-04   AT NODE        561   DOF  1
   INSTANCE: DET-1                                                                           
          THE FORCE     EQUILIBRIUM EQUATIONS HAVE CONVERGED

 AVERAGE MOMENT                     9.770E+03   TIME AVG. MOMENT      9.770E+03
 ALL MOMENT    RESIDUALS ARE ZERO
 LARGEST INCREMENT OF ROTATION     -3.321E-31   AT NODE          1   DOF  6
   INSTANCE: BASE-1                                                                          
 LARGEST CORRECTION TO ROTATION    -1.075E-31   AT NODE          1   DOF  6
   INSTANCE: BASE-1                                                                          
          THE MOMENT    EQUILIBRIUM EQUATIONS HAVE CONVERGED

 ITERATION SUMMARY FOR THE INCREMENT:   3 TOTAL ITERATIONS, OF WHICH
   0 ARE SEVERE DISCONTINUITY ITERATIONS AND  3 ARE EQUILIBRIUM ITERATIONS.

 TIME INCREMENT COMPLETED  2.500E-03,  FRACTION OF STEP COMPLETED  2.500E-03
 STEP TIME COMPLETED       2.500E-03,  TOTAL TIME COMPLETED        2.500E-03


  INCREMENT     2 STARTS. ATTEMPT NUMBER  1, TIME INCREMENT  2.500E-03

                    4 SEVERE DISCONTINUITIES OCCURRED DURING INCREMENT ATTEMPT INITIALIZATION.
                    4 POINTS CHANGED FROM STICKING TO SLIPPING

  NUMBER OF EQUATIONS =     1763     NUMBER OF FLOATING PT. OPERATIONS =  4.25E+06

     CHECK POINT   START OF SOLVER    

     CHECK POINT  END OF SOLVER       

       ELAPSED USER TIME (SEC)      =   0.0000    
       ELAPSED SYSTEM TIME (SEC)    =   0.0000    
       ELAPSED TOTAL CPU TIME (SEC) =   0.0000    
       ELAPSED WALLCLOCK TIME (SEC) =          0

                    3 SEVERE DISCONTINUITIES OCCURRED DURING THIS ITERATION.
                    3 POINTS CHANGED FROM SLIPPING TO STICKING

               CONVERGENCE CHECKS FOR SEVERE DISCONTINUITY ITERATION     1

   MAX. PENETRATION ERROR -497.902E-09   AT NODE DET-1.561 OF CONTACT PAIR 
   (ASSEMBLY_DET-1_CONT1,ASSEMBLY_PLATE-1_CONT)
   MAX. CONTACT FORCE ERROR -1.03056     AT NODE DET-1.560 OF CONTACT PAIR 
   (ASSEMBLY_DET-1_CONT1,ASSEMBLY_PLATE-1_CONT)
          THE CONTACT CONSTRAINT ERRORS ARE WITHIN THE TOLERANCES.

 AVERAGE FORCE                      1.084E+03   TIME AVG. FORCE        806.    
 LARGEST RESIDUAL FORCE             -958.       AT NODE         15   DOF  1
   INSTANCE: PLATE-1                                                                         
 LARGEST INCREMENT OF DISP.        -4.261E-02   AT NODE         37   DOF  2
   INSTANCE: PLATE-1                                                                         
 LARGEST CORRECTION TO DISP.       -2.857E-03   AT NODE        560   DOF  1
   INSTANCE: DET-1                                                                           
          FORCE     EQUILIBRIUM NOT ACHIEVED WITHIN TOLERANCE.

 AVERAGE MOMENT                     1.982E+04   TIME AVG. MOMENT      1.479E+04
 ALL MOMENT    RESIDUALS ARE ZERO
 LARGEST INCREMENT OF ROTATION     -2.172E-31   AT NODE          1   DOF  6
   INSTANCE: BASE-1                                                                          
 LARGEST CORRECTION TO ROTATION     1.150E-31   AT NODE          1   DOF  6
   INSTANCE: BASE-1                                                                          
          THE MOMENT    EQUILIBRIUM EQUATIONS HAVE CONVERGED

  NUMBER OF EQUATIONS =     1763     NUMBER OF FLOATING PT. OPERATIONS =  4.25E+06

     CHECK POINT   START OF SOLVER    

     CHECK POINT  END OF SOLVER       

       ELAPSED USER TIME (SEC)      =   0.0000    
       ELAPSED SYSTEM TIME (SEC)    =   0.0000    
       ELAPSED TOTAL CPU TIME (SEC) =   0.0000    
       ELAPSED WALLCLOCK TIME (SEC) =          0

               CONVERGENCE CHECKS FOR EQUILIBRIUM ITERATION     1

   MAX. PENETRATION ERROR 81.1837E-09  AT NODE DET-1.560 OF CONTACT PAIR 
   (ASSEMBLY_DET-1_CONT1,ASSEMBLY_PLATE-1_CONT)
   MAX. CONTACT FORCE ERROR 259.092E-03   AT NODE DET-1.560 OF CONTACT PAIR 
   (ASSEMBLY_DET-1_CONT1,ASSEMBLY_PLATE-1_CONT)
          THE CONTACT CONSTRAINTS HAVE CONVERGED.

 AVERAGE FORCE                      1.072E+03   TIME AVG. FORCE        800.    
 LARGEST RESIDUAL FORCE             -21.7       AT NODE         15   DOF  1
   INSTANCE: PLATE-1                                                                         
 LARGEST INCREMENT OF DISP.        -4.263E-02   AT NODE          2   DOF  2
   INSTANCE: PLATE-1                                                                         
 LARGEST CORRECTION TO DISP.        8.021E-04   AT NODE        550   DOF  1
   INSTANCE: DET-1                                                                           
          FORCE     EQUILIBRIUM NOT ACHIEVED WITHIN TOLERANCE.

 AVERAGE MOMENT                     1.964E+04   TIME AVG. MOMENT      1.470E+04
 ALL MOMENT    RESIDUALS ARE ZERO
 LARGEST INCREMENT OF ROTATION     -4.332E-31   AT NODE          1   DOF  6
   INSTANCE: BASE-1                                                                          
 LARGEST CORRECTION TO ROTATION    -2.160E-31   AT NODE          1   DOF  6
   INSTANCE: BASE-1                                                                          
          THE MOMENT    EQUILIBRIUM RESPONSE WAS LINEAR IN THIS INCREMENT

  NUMBER OF EQUATIONS =     1763     NUMBER OF FLOATING PT. OPERATIONS =  4.25E+06

     CHECK POINT   START OF SOLVER    

     CHECK POINT  END OF SOLVER       

       ELAPSED USER TIME (SEC)      =   0.0000    
       ELAPSED SYSTEM TIME (SEC)    =   0.0000    
       ELAPSED TOTAL CPU TIME (SEC) =   0.0000    
       ELAPSED WALLCLOCK TIME (SEC) =          0

               CONVERGENCE CHECKS FOR EQUILIBRIUM ITERATION     2

   MAX. PENETRATION ERROR -62.8488E-12  AT NODE DET-1.560 OF CONTACT PAIR 
   (ASSEMBLY_DET-1_CONT1,ASSEMBLY_PLATE-1_CONT)
   MAX. CONTACT FORCE ERROR -200.579E-06   AT NODE DET-1.560 OF CONTACT PAIR 
   (ASSEMBLY_DET-1_CONT1,ASSEMBLY_PLATE-1_CONT)
          THE CONTACT CONSTRAINTS HAVE CONVERGED.

 AVERAGE FORCE                      1.072E+03   TIME AVG. FORCE        800.    
 LARGEST RESIDUAL FORCE             0.113       AT NODE        560   DOF  1
   INSTANCE: DET-1                                                                           
 LARGEST INCREMENT OF DISP.        -4.263E-02   AT NODE          2   DOF  2
   INSTANCE: PLATE-1                                                                         
 LARGEST CORRECTION TO DISP.        1.733E-05   AT NODE        550   DOF  1
   INSTANCE: DET-1                                                                           
          THE FORCE     EQUILIBRIUM EQUATIONS HAVE CONVERGED

 AVERAGE MOMENT                     1.964E+04   TIME AVG. MOMENT      1.470E+04
 ALL MOMENT    RESIDUALS ARE ZERO
 LARGEST INCREMENT OF ROTATION     -6.492E-31   AT NODE          1   DOF  6
   INSTANCE: BASE-1                                                                          
 LARGEST CORRECTION TO ROTATION    -2.160E-31   AT NODE          1   DOF  6
   INSTANCE: BASE-1                                                                          
          THE MOMENT    EQUILIBRIUM EQUATIONS HAVE CONVERGED
          TIME INCREMENT MAY NOW INCREASE TO    3.750E-03

 ITERATION SUMMARY FOR THE INCREMENT:   3 TOTAL ITERATIONS, OF WHICH
   1 ARE SEVERE DISCONTINUITY ITERATIONS AND  2 ARE EQUILIBRIUM ITERATIONS.

 TIME INCREMENT COMPLETED  2.500E-03,  FRACTION OF STEP COMPLETED  5.000E-03
 STEP TIME COMPLETED       5.000E-03,  TOTAL TIME COMPLETED        5.000E-03


  INCREMENT     3 STARTS. ATTEMPT NUMBER  1, TIME INCREMENT  3.750E-03

                    3 SEVERE DISCONTINUITIES OCCURRED DURING INCREMENT ATTEMPT INITIALIZATION.
                    3 POINTS CHANGED FROM STICKING TO SLIPPING

  NUMBER OF EQUATIONS =     1763     NUMBER OF FLOATING PT. OPERATIONS =  4.25E+06

     CHECK POINT   START OF SOLVER    

     CHECK POINT  END OF SOLVER       

       ELAPSED USER TIME (SEC)      =   0.0000    
       ELAPSED SYSTEM TIME (SEC)    =   0.0000    
       ELAPSED TOTAL CPU TIME (SEC) =   0.0000    
       ELAPSED WALLCLOCK TIME (SEC) =          0

                    3 SEVERE DISCONTINUITIES OCCURRED DURING THIS ITERATION.
                    3 POINTS CHANGED FROM SLIPPING TO STICKING

               CONVERGENCE CHECKS FOR SEVERE DISCONTINUITY ITERATION     1

   MAX. PENETRATION ERROR 4.14816E-06 AT NODE DET-1.561 OF CONTACT PAIR 
   (ASSEMBLY_DET-1_CONT1,ASSEMBLY_PLATE-1_CONT)
   MAX. CONTACT FORCE ERROR 8.02218     AT NODE DET-1.561 OF CONTACT PAIR 
   (ASSEMBLY_DET-1_CONT1,ASSEMBLY_PLATE-1_CONT)
          THE CONTACT CONSTRAINT ERRORS ARE WITHIN THE TOLERANCES.

 AVERAGE FORCE                      1.254E+03   TIME AVG. FORCE        951.    
 LARGEST RESIDUAL FORCE            -1.498E+04   AT NODE         93   DOF  2
   INSTANCE: PLATE-1                                                                         
 LARGEST INCREMENT OF DISP.        -6.443E-02   AT NODE        452   DOF  2
   INSTANCE: DET-1                                                                           
 LARGEST CORRECTION TO DISP.       -3.382E-02   AT NODE        408   DOF  2
   INSTANCE: DET-1                                                                           
          FORCE     EQUILIBRIUM NOT ACHIEVED WITHIN TOLERANCE.

 AVERAGE MOMENT                     2.343E+04   TIME AVG. MOMENT      1.761E+04
 ALL MOMENT    RESIDUALS ARE ZERO
 LARGEST INCREMENT OF ROTATION     -2.539E-31   AT NODE          1   DOF  6
   INSTANCE: BASE-1                                                                          
 LARGEST CORRECTION TO ROTATION     7.199E-31   AT NODE          1   DOF  6
   INSTANCE: BASE-1                                                                          
          THE MOMENT    EQUILIBRIUM EQUATIONS HAVE CONVERGED

  NUMBER OF EQUATIONS =     1763     NUMBER OF FLOATING PT. OPERATIONS =  4.25E+06

     CHECK POINT   START OF SOLVER    

     CHECK POINT  END OF SOLVER       

       ELAPSED USER TIME (SEC)      =   0.0000    
       ELAPSED SYSTEM TIME (SEC)    =   0.0000    
       ELAPSED TOTAL CPU TIME (SEC) =   0.0000    
       ELAPSED WALLCLOCK TIME (SEC) =          0

               CONVERGENCE CHECKS FOR EQUILIBRIUM ITERATION     1

   MAX. PENETRATION ERROR 132.975E-09   AT NODE DET-1.556 OF CONTACT PAIR 
   (ASSEMBLY_DET-1_CONT1,ASSEMBLY_PLATE-1_CONT)
   MAX. CONTACT FORCE ERROR 297.351E-03   AT NODE DET-1.558 OF CONTACT PAIR 
   (ASSEMBLY_DET-1_CONT1,ASSEMBLY_PLATE-1_CONT)
          THE CONTACT CONSTRAINTS HAVE CONVERGED.

 AVERAGE FORCE                      1.275E+03   TIME AVG. FORCE        958.    
 LARGEST RESIDUAL FORCE              278.       AT NODE        528   DOF  1
   INSTANCE: DET-1                                                                           
 LARGEST INCREMENT OF DISP.        -6.298E-02   AT NODE          2   DOF  2
   INSTANCE: PLATE-1                                                                         
 LARGEST CORRECTION TO DISP.        1.020E-02   AT NODE        452   DOF  2
   INSTANCE: DET-1                                                                           
          FORCE     EQUILIBRIUM NOT ACHIEVED WITHIN TOLERANCE.

 AVERAGE MOMENT                     2.362E+04   TIME AVG. MOMENT      1.767E+04
 ALL MOMENT    RESIDUALS ARE ZERO
 LARGEST INCREMENT OF ROTATION     -5.137E-31   AT NODE          1   DOF  6
   INSTANCE: BASE-1                                                                          
 LARGEST CORRECTION TO ROTATION    -2.598E-31   AT NODE          1   DOF  6
   INSTANCE: BASE-1                                                                          
          THE MOMENT    EQUILIBRIUM RESPONSE WAS LINEAR IN THIS INCREMENT

  NUMBER OF EQUATIONS =     1763     NUMBER OF FLOATING PT. OPERATIONS =  4.25E+06

     CHECK POINT   START OF SOLVER    

     CHECK POINT  END OF SOLVER       

       ELAPSED USER TIME (SEC)      =   0.0000    
       ELAPSED SYSTEM TIME (SEC)    =   0.0000    
       ELAPSED TOTAL CPU TIME (SEC) =   0.0000    
       ELAPSED WALLCLOCK TIME (SEC) =          0

               CONVERGENCE CHECKS FOR EQUILIBRIUM ITERATION     2

   MAX. PENETRATION ERROR 8.40494E-09 AT NODE DET-1.558 OF CONTACT PAIR 
   (ASSEMBLY_DET-1_CONT1,ASSEMBLY_PLATE-1_CONT)
   MAX. CONTACT FORCE ERROR 20.8527E-03  AT NODE DET-1.558 OF CONTACT PAIR 
   (ASSEMBLY_DET-1_CONT1,ASSEMBLY_PLATE-1_CONT)
          THE CONTACT CONSTRAINTS HAVE CONVERGED.

 AVERAGE FORCE                      1.277E+03   TIME AVG. FORCE        959.    
 LARGEST RESIDUAL FORCE              97.4       AT NODE        457   DOF  2
   INSTANCE: DET-1                                                                           
 LARGEST INCREMENT OF DISP.        -6.298E-02   AT NODE          2   DOF  2
   INSTANCE: PLATE-1                                                                         
 LARGEST CORRECTION TO DISP.        2.309E-03   AT NODE        331   DOF  2
   INSTANCE: DET-1                                                                           
          FORCE     EQUILIBRIUM NOT ACHIEVED WITHIN TOLERANCE.

 AVERAGE MOMENT                     2.356E+04   TIME AVG. MOMENT      1.766E+04
 ALL MOMENT    RESIDUALS ARE ZERO
 LARGEST INCREMENT OF ROTATION     -7.729E-31   AT NODE          1   DOF  6
   INSTANCE: BASE-1                                                                          
 LARGEST CORRECTION TO ROTATION    -2.592E-31   AT NODE          1   DOF  6
   INSTANCE: BASE-1                                                                          
          THE MOMENT    EQUILIBRIUM EQUATIONS HAVE CONVERGED

  NUMBER OF EQUATIONS =     1763     NUMBER OF FLOATING PT. OPERATIONS =  4.25E+06

     CHECK POINT   START OF SOLVER    

     CHECK POINT  END OF SOLVER       

       ELAPSED USER TIME (SEC)      =   0.0000    
       ELAPSED SYSTEM TIME (SEC)    =   0.0000    
       ELAPSED TOTAL CPU TIME (SEC) =   0.0000    
       ELAPSED WALLCLOCK TIME (SEC) =          0

               CONVERGENCE CHECKS FOR EQUILIBRIUM ITERATION     3

   MAX. PENETRATION ERROR 170.230E-12   AT NODE DET-1.560 OF CONTACT PAIR 
   (ASSEMBLY_DET-1_CONT1,ASSEMBLY_PLATE-1_CONT)
   MAX. CONTACT FORCE ERROR 543.383E-06   AT NODE DET-1.560 OF CONTACT PAIR 
   (ASSEMBLY_DET-1_CONT1,ASSEMBLY_PLATE-1_CONT)
          THE CONTACT CONSTRAINTS HAVE CONVERGED.

 AVERAGE FORCE                      1.276E+03   TIME AVG. FORCE        959.    
 LARGEST RESIDUAL FORCE              35.2       AT NODE        481   DOF  2
   INSTANCE: DET-1                                                                           
 LARGEST INCREMENT OF DISP.        -6.298E-02   AT NODE          2   DOF  2
   INSTANCE: PLATE-1                                                                         
 LARGEST CORRECTION TO DISP.        1.016E-03   AT NODE        310   DOF  2
   INSTANCE: DET-1                                                                           
          FORCE     EQUILIBRIUM NOT ACHIEVED WITHIN TOLERANCE.

 AVERAGE MOMENT                     2.355E+04   TIME AVG. MOMENT      1.765E+04
 ALL MOMENT    RESIDUALS ARE ZERO
 LARGEST INCREMENT OF ROTATION     -1.032E-30   AT NODE          1   DOF  6
   INSTANCE: BASE-1                                                                          
 LARGEST CORRECTION TO ROTATION    -2.590E-31   AT NODE          1   DOF  6
   INSTANCE: BASE-1                                                                          
          THE MOMENT    EQUILIBRIUM EQUATIONS HAVE CONVERGED

  NUMBER OF EQUATIONS =     1763     NUMBER OF FLOATING PT. OPERATIONS =  4.25E+06

     CHECK POINT   START OF SOLVER    

     CHECK POINT  END OF SOLVER       

       ELAPSED USER TIME (SEC)      =   0.0000    
       ELAPSED SYSTEM TIME (SEC)    =   0.0000    
       ELAPSED TOTAL CPU TIME (SEC) =   0.0000    
       ELAPSED WALLCLOCK TIME (SEC) =          0

               CONVERGENCE CHECKS FOR EQUILIBRIUM ITERATION     4

   MAX. PENETRATION ERROR 55.4660E-12  AT NODE DET-1.561 OF CONTACT PAIR 
   (ASSEMBLY_DET-1_CONT1,ASSEMBLY_PLATE-1_CONT)
   MAX. CONTACT FORCE ERROR 107.299E-06   AT NODE DET-1.561 OF CONTACT PAIR 
   (ASSEMBLY_DET-1_CONT1,ASSEMBLY_PLATE-1_CONT)
          THE CONTACT CONSTRAINTS HAVE CONVERGED.

 AVERAGE FORCE                      1.277E+03   TIME AVG. FORCE        959.    
 LARGEST RESIDUAL FORCE             -7.97       AT NODE        491   DOF  2
   INSTANCE: DET-1                                                                           
 LARGEST INCREMENT OF DISP.        -6.298E-02   AT NODE          2   DOF  2
   INSTANCE: PLATE-1                                                                         
 LARGEST CORRECTION TO DISP.        3.268E-04   AT NODE        309   DOF  2
   INSTANCE: DET-1                                                                           
          FORCE     EQUILIBRIUM NOT ACHIEVED WITHIN TOLERANCE.

 AVERAGE MOMENT                     2.354E+04   TIME AVG. MOMENT      1.765E+04
 ALL MOMENT    RESIDUALS ARE ZERO
 LARGEST INCREMENT OF ROTATION     -1.291E-30   AT NODE          1   DOF  6
   INSTANCE: BASE-1                                                                          
 LARGEST CORRECTION TO ROTATION    -2.590E-31   AT NODE          1   DOF  6
   INSTANCE: BASE-1                                                                          
          THE MOMENT    EQUILIBRIUM EQUATIONS HAVE CONVERGED

  NUMBER OF EQUATIONS =     1763     NUMBER OF FLOATING PT. OPERATIONS =  4.25E+06

     CHECK POINT   START OF SOLVER    

     CHECK POINT  END OF SOLVER       

       ELAPSED USER TIME (SEC)      =   0.0000    
       ELAPSED SYSTEM TIME (SEC)    =   0.0000    
       ELAPSED TOTAL CPU TIME (SEC) =   0.0000    
       ELAPSED WALLCLOCK TIME (SEC) =          0

               CONVERGENCE CHECKS FOR EQUILIBRIUM ITERATION     5

   MAX. PENETRATION ERROR 4.38532E-12 AT NODE DET-1.561 OF CONTACT PAIR 
   (ASSEMBLY_DET-1_CONT1,ASSEMBLY_PLATE-1_CONT)
   MAX. CONTACT FORCE ERROR 8.48337E-06 AT NODE DET-1.561 OF CONTACT PAIR 
   (ASSEMBLY_DET-1_CONT1,ASSEMBLY_PLATE-1_CONT)
          THE CONTACT CONSTRAINTS HAVE CONVERGED.

 AVERAGE FORCE                      1.276E+03   TIME AVG. FORCE        959.    
 LARGEST RESIDUAL FORCE            -0.679       AT NODE        478   DOF  2
   INSTANCE: DET-1                                                                           
 LARGEST INCREMENT OF DISP.        -6.298E-02   AT NODE          2   DOF  2
   INSTANCE: PLATE-1                                                                         
 LARGEST CORRECTION TO DISP.        3.439E-05   AT NODE        320   DOF  2
   INSTANCE: DET-1                                                                           
          THE FORCE     EQUILIBRIUM EQUATIONS HAVE CONVERGED

 AVERAGE MOMENT                     2.354E+04   TIME AVG. MOMENT      1.765E+04
 ALL MOMENT    RESIDUALS ARE ZERO
 LARGEST INCREMENT OF ROTATION     -1.550E-30   AT NODE          1   DOF  6
   INSTANCE: BASE-1                                                                          
 LARGEST CORRECTION TO ROTATION    -2.590E-31   AT NODE          1   DOF  6
   INSTANCE: BASE-1                                                                          
          THE MOMENT    EQUILIBRIUM EQUATIONS HAVE CONVERGED

 ITERATION SUMMARY FOR THE INCREMENT:   6 TOTAL ITERATIONS, OF WHICH
   1 ARE SEVERE DISCONTINUITY ITERATIONS AND  5 ARE EQUILIBRIUM ITERATIONS.

 TIME INCREMENT COMPLETED  3.750E-03,  FRACTION OF STEP COMPLETED  8.750E-03
 STEP TIME COMPLETED       8.750E-03,  TOTAL TIME COMPLETED        8.750E-03


  INCREMENT     4 STARTS. ATTEMPT NUMBER  1, TIME INCREMENT  3.750E-03

                    1 SEVERE DISCONTINUITIES OCCURRED DURING INCREMENT ATTEMPT INITIALIZATION.
                    1 POINTS CHANGED FROM STICKING TO SLIPPING

  NUMBER OF EQUATIONS =     1763     NUMBER OF FLOATING PT. OPERATIONS =  4.25E+06

     CHECK POINT   START OF SOLVER    

     CHECK POINT  END OF SOLVER       

       ELAPSED USER TIME (SEC)      =   0.0000    
       ELAPSED SYSTEM TIME (SEC)    =   0.0000    
       ELAPSED TOTAL CPU TIME (SEC) =   0.0000    
       ELAPSED WALLCLOCK TIME (SEC) =          0

                    2 SEVERE DISCONTINUITIES OCCURRED DURING THIS ITERATION.
                    2 POINTS CHANGED FROM SLIPPING TO STICKING

               CONVERGENCE CHECKS FOR SEVERE DISCONTINUITY ITERATION     1

   MAX. PENETRATION ERROR 587.087E-09   AT NODE DET-1.561 OF CONTACT PAIR 
   (ASSEMBLY_DET-1_CONT1,ASSEMBLY_PLATE-1_CONT)
   MAX. CONTACT FORCE ERROR 1.13556     AT NODE DET-1.561 OF CONTACT PAIR 
   (ASSEMBLY_DET-1_CONT1,ASSEMBLY_PLATE-1_CONT)
          THE CONTACT CONSTRAINT ERRORS ARE WITHIN THE TOLERANCES.

 AVERAGE FORCE                      1.279E+03   TIME AVG. FORCE       1.039E+03
 LARGEST RESIDUAL FORCE             1.622E+03   AT NODE        131   DOF  2
   INSTANCE: PLATE-1                                                                         
 LARGEST INCREMENT OF DISP.        -6.379E-02   AT NODE        463   DOF  2
   INSTANCE: DET-1                                                                           
 LARGEST CORRECTION TO DISP.       -9.586E-03   AT NODE        463   DOF  2
   INSTANCE: DET-1                                                                           
          FORCE     EQUILIBRIUM NOT ACHIEVED WITHIN TOLERANCE.

 AVERAGE MOMENT                     2.377E+04   TIME AVG. MOMENT      1.918E+04
 ALL MOMENT    RESIDUALS ARE ZERO
 LARGEST INCREMENT OF ROTATION     -2.519E-31   AT NODE          1   DOF  6
   INSTANCE: BASE-1                                                                          
 LARGEST CORRECTION TO ROTATION     1.298E-30   AT NODE          1   DOF  6
   INSTANCE: BASE-1                                                                          
          THE MOMENT    EQUILIBRIUM EQUATIONS HAVE CONVERGED

  NUMBER OF EQUATIONS =     1763     NUMBER OF FLOATING PT. OPERATIONS =  4.25E+06

     CHECK POINT   START OF SOLVER    

     CHECK POINT  END OF SOLVER       

       ELAPSED USER TIME (SEC)      =   0.0000    
       ELAPSED SYSTEM TIME (SEC)    =   0.0000    
       ELAPSED TOTAL CPU TIME (SEC) =   0.0000    
       ELAPSED WALLCLOCK TIME (SEC) =          0

               CONVERGENCE CHECKS FOR EQUILIBRIUM ITERATION     1

   MAX. PENETRATION ERROR 15.2363E-09  AT NODE DET-1.561 OF CONTACT PAIR 
   (ASSEMBLY_DET-1_CONT1,ASSEMBLY_PLATE-1_CONT)
   MAX. CONTACT FORCE ERROR 29.4698E-03  AT NODE DET-1.561 OF CONTACT PAIR 
   (ASSEMBLY_DET-1_CONT1,ASSEMBLY_PLATE-1_CONT)
          THE CONTACT CONSTRAINTS HAVE CONVERGED.

 AVERAGE FORCE                      1.284E+03   TIME AVG. FORCE       1.040E+03
 LARGEST RESIDUAL FORCE              54.5       AT NODE        500   DOF  2
   INSTANCE: DET-1                                                                           
 LARGEST INCREMENT OF DISP.        -6.283E-02   AT NODE        496   DOF  2
   INSTANCE: DET-1                                                                           
 LARGEST CORRECTION TO DISP.        1.600E-03   AT NODE        364   DOF  2
   INSTANCE: DET-1                                                                           
          FORCE     EQUILIBRIUM NOT ACHIEVED WITHIN TOLERANCE.

 AVERAGE MOMENT                     2.378E+04   TIME AVG. MOMENT      1.918E+04
 ALL MOMENT    RESIDUALS ARE ZERO
 LARGEST INCREMENT OF ROTATION     -5.135E-31   AT NODE          1   DOF  6
   INSTANCE: BASE-1                                                                          
 LARGEST CORRECTION TO ROTATION    -2.616E-31   AT NODE          1   DOF  6
   INSTANCE: BASE-1                                                                          
          THE MOMENT    EQUILIBRIUM RESPONSE WAS LINEAR IN THIS INCREMENT

  NUMBER OF EQUATIONS =     1763     NUMBER OF FLOATING PT. OPERATIONS =  4.25E+06

     CHECK POINT   START OF SOLVER    

     CHECK POINT  END OF SOLVER       

       ELAPSED USER TIME (SEC)      =   0.0000    
       ELAPSED SYSTEM TIME (SEC)    =   0.0000    
       ELAPSED TOTAL CPU TIME (SEC) =   0.0000    
       ELAPSED WALLCLOCK TIME (SEC) =          0

               CONVERGENCE CHECKS FOR EQUILIBRIUM ITERATION     2

   MAX. PENETRATION ERROR -78.8834E-12  AT NODE DET-1.561 OF CONTACT PAIR 
   (ASSEMBLY_DET-1_CONT1,ASSEMBLY_PLATE-1_CONT)
   MAX. CONTACT FORCE ERROR 248.917E-06   AT NODE DET-1.560 OF CONTACT PAIR 
   (ASSEMBLY_DET-1_CONT1,ASSEMBLY_PLATE-1_CONT)
          THE CONTACT CONSTRAINTS HAVE CONVERGED.

 AVERAGE FORCE                      1.285E+03   TIME AVG. FORCE       1.040E+03
 LARGEST RESIDUAL FORCE             0.344       AT NODE        464   DOF  1
   INSTANCE: DET-1                                                                           
 LARGEST INCREMENT OF DISP.        -6.279E-02   AT NODE        496   DOF  2
   INSTANCE: DET-1                                                                           
 LARGEST CORRECTION TO DISP.        1.605E-04   AT NODE        452   DOF  2
   INSTANCE: DET-1                                                                           
          THE FORCE     EQUILIBRIUM EQUATIONS HAVE CONVERGED

 AVERAGE MOMENT                     2.379E+04   TIME AVG. MOMENT      1.918E+04
 ALL MOMENT    RESIDUALS ARE ZERO
 LARGEST INCREMENT OF ROTATION     -7.752E-31   AT NODE          1   DOF  6
   INSTANCE: BASE-1                                                                          
 LARGEST CORRECTION TO ROTATION    -2.617E-31   AT NODE          1   DOF  6
   INSTANCE: BASE-1                                                                          
          THE MOMENT    EQUILIBRIUM EQUATIONS HAVE CONVERGED

 ITERATION SUMMARY FOR THE INCREMENT:   3 TOTAL ITERATIONS, OF WHICH
   1 ARE SEVERE DISCONTINUITY ITERATIONS AND  2 ARE EQUILIBRIUM ITERATIONS.

 TIME INCREMENT COMPLETED  3.750E-03,  FRACTION OF STEP COMPLETED  1.250E-02
 STEP TIME COMPLETED       1.250E-02,  TOTAL TIME COMPLETED        1.250E-02


  INCREMENT     5 STARTS. ATTEMPT NUMBER  1, TIME INCREMENT  3.750E-03

  NUMBER OF EQUATIONS =     1763     NUMBER OF FLOATING PT. OPERATIONS =  4.25E+06

     CHECK POINT   START OF SOLVER    

     CHECK POINT  END OF SOLVER       

       ELAPSED USER TIME (SEC)      =   0.0000    
       ELAPSED SYSTEM TIME (SEC)    =   0.0000    
       ELAPSED TOTAL CPU TIME (SEC) =   0.0000    
       ELAPSED WALLCLOCK TIME (SEC) =          0

               CONVERGENCE CHECKS FOR EQUILIBRIUM ITERATION     1

   MAX. PENETRATION ERROR 634.611E-12   AT NODE DET-1.551 OF CONTACT PAIR 
   (ASSEMBLY_DET-1_CONT1,ASSEMBLY_PLATE-1_CONT)
   MAX. CONTACT FORCE ERROR 924.282E-06   AT NODE DET-1.560 OF CONTACT PAIR 
   (ASSEMBLY_DET-1_CONT1,ASSEMBLY_PLATE-1_CONT)
          THE CONTACT CONSTRAINTS HAVE CONVERGED.

 AVERAGE FORCE                      1.288E+03   TIME AVG. FORCE       1.090E+03
 LARGEST RESIDUAL FORCE              17.2       AT NODE         29   DOF  2
   INSTANCE: DET-1                                                                           
 LARGEST INCREMENT OF DISP.        -6.263E-02   AT NODE          2   DOF  2
   INSTANCE: PLATE-1                                                                         
 LARGEST CORRECTION TO DISP.        1.252E-03   AT NODE        353   DOF  2
   INSTANCE: DET-1                                                                           
          FORCE     EQUILIBRIUM NOT ACHIEVED WITHIN TOLERANCE.

 AVERAGE MOMENT                     2.397E+04   TIME AVG. MOMENT      2.014E+04
 ALL MOMENT    RESIDUALS ARE ZERO
 LARGEST INCREMENT OF ROTATION     -2.512E-31   AT NODE          1   DOF  6
   INSTANCE: BASE-1                                                                          
 LARGEST CORRECTION TO ROTATION     5.241E-31   AT NODE          1   DOF  6
   INSTANCE: BASE-1                                                                          
          THE MOMENT    EQUILIBRIUM RESPONSE WAS LINEAR IN THIS INCREMENT

  NUMBER OF EQUATIONS =     1763     NUMBER OF FLOATING PT. OPERATIONS =  4.25E+06

     CHECK POINT   START OF SOLVER    

     CHECK POINT  END OF SOLVER       

       ELAPSED USER TIME (SEC)      =   0.0000    
       ELAPSED SYSTEM TIME (SEC)    =   0.0000    
       ELAPSED TOTAL CPU TIME (SEC) =   0.0000    
       ELAPSED WALLCLOCK TIME (SEC) =          0

               CONVERGENCE CHECKS FOR EQUILIBRIUM ITERATION     2

   MAX. PENETRATION ERROR 11.4261E-12  AT NODE DET-1.560 OF CONTACT PAIR 
   (ASSEMBLY_DET-1_CONT1,ASSEMBLY_PLATE-1_CONT)
   MAX. CONTACT FORCE ERROR 36.4647E-06  AT NODE DET-1.560 OF CONTACT PAIR 
   (ASSEMBLY_DET-1_CONT1,ASSEMBLY_PLATE-1_CONT)
          THE CONTACT CONSTRAINTS HAVE CONVERGED.

 AVERAGE FORCE                      1.287E+03   TIME AVG. FORCE       1.090E+03
 LARGEST RESIDUAL FORCE            -0.119       AT NODE         28   DOF  1
   INSTANCE: DET-1                                                                           
 LARGEST INCREMENT OF DISP.        -6.263E-02   AT NODE          2   DOF  2
   INSTANCE: PLATE-1                                                                         
 LARGEST CORRECTION TO DISP.        6.191E-05   AT NODE        375   DOF  2
   INSTANCE: DET-1                                                                           
          THE FORCE     EQUILIBRIUM EQUATIONS HAVE CONVERGED

 AVERAGE MOMENT                     2.397E+04   TIME AVG. MOMENT      2.014E+04
 ALL MOMENT    RESIDUALS ARE ZERO
 LARGEST INCREMENT OF ROTATION     -5.149E-31   AT NODE          1   DOF  6
   INSTANCE: BASE-1                                                                          
 LARGEST CORRECTION TO ROTATION    -2.637E-31   AT NODE          1   DOF  6
   INSTANCE: BASE-1                                                                          
          THE MOMENT    EQUILIBRIUM EQUATIONS HAVE CONVERGED
          TIME INCREMENT MAY NOW INCREASE TO    5.625E-03

 ITERATION SUMMARY FOR THE INCREMENT:   2 TOTAL ITERATIONS, OF WHICH
   0 ARE SEVERE DISCONTINUITY ITERATIONS AND  2 ARE EQUILIBRIUM ITERATIONS.

 TIME INCREMENT COMPLETED  3.750E-03,  FRACTION OF STEP COMPLETED  1.625E-02
 STEP TIME COMPLETED       1.625E-02,  TOTAL TIME COMPLETED        1.625E-02


  INCREMENT     6 STARTS. ATTEMPT NUMBER  1, TIME INCREMENT  5.625E-03

  NUMBER OF EQUATIONS =     1763     NUMBER OF FLOATING PT. OPERATIONS =  4.25E+06

     CHECK POINT   START OF SOLVER    

     CHECK POINT  END OF SOLVER       

       ELAPSED USER TIME (SEC)      =   0.0000    
       ELAPSED SYSTEM TIME (SEC)    =   0.0000    
       ELAPSED TOTAL CPU TIME (SEC) =   0.0000    
       ELAPSED WALLCLOCK TIME (SEC) =          0

               CONVERGENCE CHECKS FOR EQUILIBRIUM ITERATION     1

   MAX. PENETRATION ERROR 193.738E-12   AT NODE DET-1.560 OF CONTACT PAIR 
   (ASSEMBLY_DET-1_CONT1,ASSEMBLY_PLATE-1_CONT)
   MAX. CONTACT FORCE ERROR 618.174E-06   AT NODE DET-1.560 OF CONTACT PAIR 
   (ASSEMBLY_DET-1_CONT1,ASSEMBLY_PLATE-1_CONT)
          THE CONTACT CONSTRAINTS HAVE CONVERGED.

 AVERAGE FORCE                      1.292E+03   TIME AVG. FORCE       1.123E+03
 LARGEST RESIDUAL FORCE             -2.88       AT NODE         39   DOF  2
   INSTANCE: DET-1                                                                           
 LARGEST INCREMENT OF DISP.        -9.395E-02   AT NODE          2   DOF  2
   INSTANCE: PLATE-1                                                                         
 LARGEST CORRECTION TO DISP.        7.903E-04   AT NODE        342   DOF  2
   INSTANCE: DET-1                                                                           
          THE FORCE     EQUILIBRIUM EQUATIONS HAVE CONVERGED

 AVERAGE MOMENT                     2.419E+04   TIME AVG. MOMENT      2.082E+04
 ALL MOMENT    RESIDUALS ARE ZERO
 LARGEST INCREMENT OF ROTATION     -2.443E-31   AT NODE          1   DOF  6
   INSTANCE: BASE-1                                                                          
 LARGEST CORRECTION TO ROTATION     5.280E-31   AT NODE          1   DOF  6
   INSTANCE: BASE-1                                                                          
          THE MOMENT    EQUILIBRIUM RESPONSE WAS LINEAR IN THIS INCREMENT
          TIME INCREMENT MAY NOW INCREASE TO    8.438E-03

 ITERATION SUMMARY FOR THE INCREMENT:   1 TOTAL ITERATIONS, OF WHICH
   0 ARE SEVERE DISCONTINUITY ITERATIONS AND  1 ARE EQUILIBRIUM ITERATIONS.

 TIME INCREMENT COMPLETED  5.625E-03,  FRACTION OF STEP COMPLETED  2.187E-02
 STEP TIME COMPLETED       2.187E-02,  TOTAL TIME COMPLETED        2.187E-02


  INCREMENT     7 STARTS. ATTEMPT NUMBER  1, TIME INCREMENT  8.438E-03

  NUMBER OF EQUATIONS =     1763     NUMBER OF FLOATING PT. OPERATIONS =  4.25E+06

     CHECK POINT   START OF SOLVER    

     CHECK POINT  END OF SOLVER       

       ELAPSED USER TIME (SEC)      =   0.0000    
       ELAPSED SYSTEM TIME (SEC)    =   0.0000    
       ELAPSED TOTAL CPU TIME (SEC) =   0.0000    
       ELAPSED WALLCLOCK TIME (SEC) =          0

               CONVERGENCE CHECKS FOR EQUILIBRIUM ITERATION     1

   MAX. PENETRATION ERROR -248.955E-12   AT NODE DET-1.561 OF CONTACT PAIR 
   (ASSEMBLY_DET-1_CONT1,ASSEMBLY_PLATE-1_CONT)
   MAX. CONTACT FORCE ERROR 524.760E-06   AT NODE DET-1.560 OF CONTACT PAIR 
   (ASSEMBLY_DET-1_CONT1,ASSEMBLY_PLATE-1_CONT)
          THE CONTACT CONSTRAINTS HAVE CONVERGED.

 AVERAGE FORCE                      1.299E+03   TIME AVG. FORCE       1.148E+03
 LARGEST RESIDUAL FORCE             -4.34       AT NODE        510   DOF  1
   INSTANCE: DET-1                                                                           
 LARGEST INCREMENT OF DISP.        -0.141       AT NODE          2   DOF  2
   INSTANCE: PLATE-1                                                                         
 LARGEST CORRECTION TO DISP.        1.366E-03   AT NODE        364   DOF  2
   INSTANCE: DET-1                                                                           
          THE FORCE     EQUILIBRIUM EQUATIONS HAVE CONVERGED

 AVERAGE MOMENT                     2.445E+04   TIME AVG. MOMENT      2.134E+04
 ALL MOMENT    RESIDUALS ARE ZERO
 LARGEST INCREMENT OF ROTATION     -2.339E-31   AT NODE          1   DOF  6
   INSTANCE: BASE-1                                                                          
 LARGEST CORRECTION TO ROTATION     1.326E-31   AT NODE          1   DOF  6
   INSTANCE: BASE-1                                                                          
          THE MOMENT    EQUILIBRIUM RESPONSE WAS LINEAR IN THIS INCREMENT
          TIME INCREMENT MAY NOW INCREASE TO    1.266E-02

 ITERATION SUMMARY FOR THE INCREMENT:   1 TOTAL ITERATIONS, OF WHICH
   0 ARE SEVERE DISCONTINUITY ITERATIONS AND  1 ARE EQUILIBRIUM ITERATIONS.

 TIME INCREMENT COMPLETED  8.438E-03,  FRACTION OF STEP COMPLETED  3.031E-02
 STEP TIME COMPLETED       3.031E-02,  TOTAL TIME COMPLETED        3.031E-02


  INCREMENT     8 STARTS. ATTEMPT NUMBER  1, TIME INCREMENT  1.266E-02

                    1 SEVERE DISCONTINUITIES OCCURRED DURING INCREMENT ATTEMPT INITIALIZATION.
                    1 POINTS CHANGED FROM STICKING TO SLIPPING

  NUMBER OF EQUATIONS =     1763     NUMBER OF FLOATING PT. OPERATIONS =  4.25E+06

     CHECK POINT   START OF SOLVER    

     CHECK POINT  END OF SOLVER       

       ELAPSED USER TIME (SEC)      =  0.10000    
       ELAPSED SYSTEM TIME (SEC)    =   0.0000    
       ELAPSED TOTAL CPU TIME (SEC) =  0.10000    
       ELAPSED WALLCLOCK TIME (SEC) =          0

               CONVERGENCE CHECKS FOR EQUILIBRIUM ITERATION     1

   MAX. PENETRATION ERROR -795.722E-12   AT NODE DET-1.561 OF CONTACT PAIR 
   (ASSEMBLY_DET-1_CONT1,ASSEMBLY_PLATE-1_CONT)
   MAX. CONTACT FORCE ERROR -1.53906E-03 AT NODE DET-1.561 OF CONTACT PAIR 
   (ASSEMBLY_DET-1_CONT1,ASSEMBLY_PLATE-1_CONT)
          THE CONTACT CONSTRAINTS HAVE CONVERGED.

 AVERAGE FORCE                      1.306E+03   TIME AVG. FORCE       1.168E+03
 LARGEST RESIDUAL FORCE             -9.55       AT NODE        522   DOF  1
   INSTANCE: DET-1                                                                           
 LARGEST INCREMENT OF DISP.        -0.211       AT NODE          2   DOF  2
   INSTANCE: PLATE-1                                                                         
 LARGEST CORRECTION TO DISP.        2.581E-03   AT NODE        364   DOF  2
   INSTANCE: DET-1                                                                           
          FORCE     EQUILIBRIUM NOT ACHIEVED WITHIN TOLERANCE.

 AVERAGE MOMENT                     2.474E+04   TIME AVG. MOMENT      2.176E+04
 ALL MOMENT    RESIDUALS ARE ZERO
 LARGEST INCREMENT OF ROTATION     -2.161E-31   AT NODE          1   DOF  6
   INSTANCE: BASE-1                                                                          
 LARGEST CORRECTION TO ROTATION     1.347E-31   AT NODE          1   DOF  6
   INSTANCE: BASE-1                                                                          
          THE MOMENT    EQUILIBRIUM RESPONSE WAS LINEAR IN THIS INCREMENT

  NUMBER OF EQUATIONS =     1763     NUMBER OF FLOATING PT. OPERATIONS =  4.25E+06

     CHECK POINT   START OF SOLVER    

     CHECK POINT  END OF SOLVER       

       ELAPSED USER TIME (SEC)      =   0.0000    
       ELAPSED SYSTEM TIME (SEC)    =   0.0000    
       ELAPSED TOTAL CPU TIME (SEC) =   0.0000    
       ELAPSED WALLCLOCK TIME (SEC) =          0

               CONVERGENCE CHECKS FOR EQUILIBRIUM ITERATION     2

   MAX. PENETRATION ERROR -15.1310E-12  AT NODE DET-1.561 OF CONTACT PAIR 
   (ASSEMBLY_DET-1_CONT1,ASSEMBLY_PLATE-1_CONT)
   MAX. CONTACT FORCE ERROR -29.2661E-06  AT NODE DET-1.561 OF CONTACT PAIR 
   (ASSEMBLY_DET-1_CONT1,ASSEMBLY_PLATE-1_CONT)
          THE CONTACT CONSTRAINTS HAVE CONVERGED.

 AVERAGE FORCE                      1.307E+03   TIME AVG. FORCE       1.168E+03
 LARGEST RESIDUAL FORCE             5.165E-02   AT NODE        550   DOF  2
   INSTANCE: DET-1                                                                           
 LARGEST INCREMENT OF DISP.        -0.211       AT NODE          2   DOF  2
   INSTANCE: PLATE-1                                                                         
 LARGEST CORRECTION TO DISP.        6.118E-05   AT NODE        408   DOF  2
   INSTANCE: DET-1                                                                           
          THE FORCE     EQUILIBRIUM EQUATIONS HAVE CONVERGED

 AVERAGE MOMENT                     2.474E+04   TIME AVG. MOMENT      2.176E+04
 ALL MOMENT    RESIDUALS ARE ZERO
 LARGEST INCREMENT OF ROTATION     -4.882E-31   AT NODE          1   DOF  6
   INSTANCE: BASE-1                                                                          
 LARGEST CORRECTION TO ROTATION    -2.722E-31   AT NODE          1   DOF  6
   INSTANCE: BASE-1                                                                          
          THE MOMENT    EQUILIBRIUM EQUATIONS HAVE CONVERGED
          TIME INCREMENT MAY NOW INCREASE TO    1.898E-02

 ITERATION SUMMARY FOR THE INCREMENT:   2 TOTAL ITERATIONS, OF WHICH
   0 ARE SEVERE DISCONTINUITY ITERATIONS AND  2 ARE EQUILIBRIUM ITERATIONS.

 TIME INCREMENT COMPLETED  1.266E-02,  FRACTION OF STEP COMPLETED  4.297E-02
 STEP TIME COMPLETED       4.297E-02,  TOTAL TIME COMPLETED        4.297E-02


  INCREMENT     9 STARTS. ATTEMPT NUMBER  1, TIME INCREMENT  1.898E-02

                    1 SEVERE DISCONTINUITIES OCCURRED DURING INCREMENT ATTEMPT INITIALIZATION.
                    1 POINTS CHANGED FROM STICKING TO SLIPPING

  NUMBER OF EQUATIONS =     1763     NUMBER OF FLOATING PT. OPERATIONS =  4.25E+06

     CHECK POINT   START OF SOLVER    

     CHECK POINT  END OF SOLVER       

       ELAPSED USER TIME (SEC)      =   0.0000    
       ELAPSED SYSTEM TIME (SEC)    =   0.0000    
       ELAPSED TOTAL CPU TIME (SEC) =   0.0000    
       ELAPSED WALLCLOCK TIME (SEC) =          0

               CONVERGENCE CHECKS FOR EQUILIBRIUM ITERATION     1

   MAX. PENETRATION ERROR -2.25838E-09 AT NODE DET-1.561 OF CONTACT PAIR 
   (ASSEMBLY_DET-1_CONT1,ASSEMBLY_PLATE-1_CONT)
   MAX. CONTACT FORCE ERROR -4.36992E-03 AT NODE DET-1.561 OF CONTACT PAIR 
   (ASSEMBLY_DET-1_CONT1,ASSEMBLY_PLATE-1_CONT)
          THE CONTACT CONSTRAINTS HAVE CONVERGED.

 AVERAGE FORCE                      1.316E+03   TIME AVG. FORCE       1.185E+03
 LARGEST RESIDUAL FORCE             -12.7       AT NODE        534   DOF  1
   INSTANCE: DET-1                                                                           
 LARGEST INCREMENT OF DISP.        -0.317       AT NODE          2   DOF  2
   INSTANCE: PLATE-1                                                                         
 LARGEST CORRECTION TO DISP.       -5.472E-03   AT NODE        177   DOF  2
   INSTANCE: DET-1                                                                           
          FORCE     EQUILIBRIUM NOT ACHIEVED WITHIN TOLERANCE.

 AVERAGE MOMENT                     2.508E+04   TIME AVG. MOMENT      2.213E+04
 ALL MOMENT    RESIDUALS ARE ZERO
 LARGEST INCREMENT OF ROTATION     -1.809E-31   AT NODE          1   DOF  6
   INSTANCE: BASE-1                                                                          
 LARGEST CORRECTION TO ROTATION     5.514E-31   AT NODE          1   DOF  6
   INSTANCE: BASE-1                                                                          
          THE MOMENT    EQUILIBRIUM RESPONSE WAS LINEAR IN THIS INCREMENT

  NUMBER OF EQUATIONS =     1763     NUMBER OF FLOATING PT. OPERATIONS =  4.25E+06

     CHECK POINT   START OF SOLVER    

     CHECK POINT  END OF SOLVER       

       ELAPSED USER TIME (SEC)      =   0.0000    
       ELAPSED SYSTEM TIME (SEC)    =   0.0000    
       ELAPSED TOTAL CPU TIME (SEC) =   0.0000    
       ELAPSED WALLCLOCK TIME (SEC) =          0

               CONVERGENCE CHECKS FOR EQUILIBRIUM ITERATION     2

   MAX. PENETRATION ERROR -50.3368E-12  AT NODE DET-1.560 OF CONTACT PAIR 
   (ASSEMBLY_DET-1_CONT1,ASSEMBLY_PLATE-1_CONT)
   MAX. CONTACT FORCE ERROR -160.433E-06   AT NODE DET-1.560 OF CONTACT PAIR 
   (ASSEMBLY_DET-1_CONT1,ASSEMBLY_PLATE-1_CONT)
          THE CONTACT CONSTRAINTS HAVE CONVERGED.

 AVERAGE FORCE                      1.316E+03   TIME AVG. FORCE       1.185E+03
 LARGEST RESIDUAL FORCE             0.136       AT NODE        550   DOF  2
   INSTANCE: DET-1                                                                           
 LARGEST INCREMENT OF DISP.        -0.317       AT NODE          2   DOF  2
   INSTANCE: PLATE-1                                                                         
 LARGEST CORRECTION TO DISP.       -1.628E-04   AT NODE        156   DOF  2
   INSTANCE: DET-1                                                                           
          THE FORCE     EQUILIBRIUM EQUATIONS HAVE CONVERGED

 AVERAGE MOMENT                     2.508E+04   TIME AVG. MOMENT      2.213E+04
 ALL MOMENT    RESIDUALS ARE ZERO
 LARGEST INCREMENT OF ROTATION     -4.567E-31   AT NODE          1   DOF  6
   INSTANCE: BASE-1                                                                          
 LARGEST CORRECTION TO ROTATION    -2.758E-31   AT NODE          1   DOF  6
   INSTANCE: BASE-1                                                                          
          THE MOMENT    EQUILIBRIUM EQUATIONS HAVE CONVERGED
          TIME INCREMENT MAY NOW INCREASE TO    2.848E-02

 ITERATION SUMMARY FOR THE INCREMENT:   2 TOTAL ITERATIONS, OF WHICH
   0 ARE SEVERE DISCONTINUITY ITERATIONS AND  2 ARE EQUILIBRIUM ITERATIONS.

 TIME INCREMENT COMPLETED  1.898E-02,  FRACTION OF STEP COMPLETED  6.195E-02
 STEP TIME COMPLETED       6.195E-02,  TOTAL TIME COMPLETED        6.195E-02


  INCREMENT    10 STARTS. ATTEMPT NUMBER  1, TIME INCREMENT  2.848E-02

  NUMBER OF EQUATIONS =     1763     NUMBER OF FLOATING PT. OPERATIONS =  4.25E+06

     CHECK POINT   START OF SOLVER    

     CHECK POINT  END OF SOLVER       

       ELAPSED USER TIME (SEC)      =   0.0000    
       ELAPSED SYSTEM TIME (SEC)    =   0.0000    
       ELAPSED TOTAL CPU TIME (SEC) =   0.0000    
       ELAPSED WALLCLOCK TIME (SEC) =          0

               CONVERGENCE CHECKS FOR EQUILIBRIUM ITERATION     1

   MAX. PENETRATION ERROR -5.63960E-09 AT NODE DET-1.561 OF CONTACT PAIR 
   (ASSEMBLY_DET-1_CONT1,ASSEMBLY_PLATE-1_CONT)
   MAX. CONTACT FORCE ERROR -10.9224E-03  AT NODE DET-1.561 OF CONTACT PAIR 
   (ASSEMBLY_DET-1_CONT1,ASSEMBLY_PLATE-1_CONT)
          THE CONTACT CONSTRAINTS HAVE CONVERGED.

 AVERAGE FORCE                      1.331E+03   TIME AVG. FORCE       1.199E+03
 LARGEST RESIDUAL FORCE             -19.1       AT NODE        521   DOF  1
   INSTANCE: DET-1                                                                           
 LARGEST INCREMENT OF DISP.        -0.476       AT NODE          2   DOF  2
   INSTANCE: PLATE-1                                                                         
 LARGEST CORRECTION TO DISP.       -1.136E-02   AT NODE        177   DOF  2
   INSTANCE: DET-1                                                                           
          FORCE     EQUILIBRIUM NOT ACHIEVED WITHIN TOLERANCE.

 AVERAGE MOMENT                     2.546E+04   TIME AVG. MOMENT      2.246E+04
 ALL MOMENT    RESIDUALS ARE ZERO
 LARGEST INCREMENT OF ROTATION     -1.209E-31   AT NODE          1   DOF  6
   INSTANCE: BASE-1                                                                          
 LARGEST CORRECTION TO ROTATION     5.642E-31   AT NODE          1   DOF  6
   INSTANCE: BASE-1                                                                          
          THE MOMENT    EQUILIBRIUM RESPONSE WAS LINEAR IN THIS INCREMENT

  NUMBER OF EQUATIONS =     1763     NUMBER OF FLOATING PT. OPERATIONS =  4.25E+06

     CHECK POINT   START OF SOLVER    

     CHECK POINT  END OF SOLVER       

       ELAPSED USER TIME (SEC)      =   0.0000    
       ELAPSED SYSTEM TIME (SEC)    =   0.0000    
       ELAPSED TOTAL CPU TIME (SEC) =   0.0000    
       ELAPSED WALLCLOCK TIME (SEC) =          0

               CONVERGENCE CHECKS FOR EQUILIBRIUM ITERATION     2

   MAX. PENETRATION ERROR -97.1097E-12  AT NODE DET-1.560 OF CONTACT PAIR 
   (ASSEMBLY_DET-1_CONT1,ASSEMBLY_PLATE-1_CONT)
   MAX. CONTACT FORCE ERROR -309.370E-06   AT NODE DET-1.560 OF CONTACT PAIR 
   (ASSEMBLY_DET-1_CONT1,ASSEMBLY_PLATE-1_CONT)
          THE CONTACT CONSTRAINTS HAVE CONVERGED.

 AVERAGE FORCE                      1.330E+03   TIME AVG. FORCE       1.199E+03
 LARGEST RESIDUAL FORCE             0.432       AT NODE         10   DOF  1
   INSTANCE: DET-1                                                                           
 LARGEST INCREMENT OF DISP.        -0.476       AT NODE          2   DOF  2
   INSTANCE: PLATE-1                                                                         
 LARGEST CORRECTION TO DISP.       -5.109E-04   AT NODE        144   DOF  2
   INSTANCE: DET-1                                                                           
          THE FORCE     EQUILIBRIUM EQUATIONS HAVE CONVERGED

 AVERAGE MOMENT                     2.546E+04   TIME AVG. MOMENT      2.246E+04
 ALL MOMENT    RESIDUALS ARE ZERO
 LARGEST INCREMENT OF ROTATION     -4.010E-31   AT NODE          1   DOF  6
   INSTANCE: BASE-1                                                                          
 LARGEST CORRECTION TO ROTATION    -2.801E-31   AT NODE          1   DOF  6
   INSTANCE: BASE-1                                                                          
          THE MOMENT    EQUILIBRIUM EQUATIONS HAVE CONVERGED
          TIME INCREMENT MAY NOW INCREASE TO    4.271E-02

 ITERATION SUMMARY FOR THE INCREMENT:   2 TOTAL ITERATIONS, OF WHICH
   0 ARE SEVERE DISCONTINUITY ITERATIONS AND  2 ARE EQUILIBRIUM ITERATIONS.

 TIME INCREMENT COMPLETED  2.848E-02,  FRACTION OF STEP COMPLETED  9.043E-02
 STEP TIME COMPLETED       9.043E-02,  TOTAL TIME COMPLETED        9.043E-02


  INCREMENT    11 STARTS. ATTEMPT NUMBER  1, TIME INCREMENT  4.271E-02

  NUMBER OF EQUATIONS =     1763     NUMBER OF FLOATING PT. OPERATIONS =  4.25E+06

     CHECK POINT   START OF SOLVER    

     CHECK POINT  END OF SOLVER       

       ELAPSED USER TIME (SEC)      =   0.0000    
       ELAPSED SYSTEM TIME (SEC)    =   0.0000    
       ELAPSED TOTAL CPU TIME (SEC) =   0.0000    
       ELAPSED WALLCLOCK TIME (SEC) =          0

                    1 SEVERE DISCONTINUITIES OCCURRED DURING THIS ITERATION.
                    1 POINTS CHANGED FROM SLIPPING TO STICKING

               CONVERGENCE CHECKS FOR SEVERE DISCONTINUITY ITERATION     1

   MAX. PENETRATION ERROR 23.6327E-09  AT NODE DET-1.559 OF CONTACT PAIR 
   (ASSEMBLY_DET-1_CONT1,ASSEMBLY_PLATE-1_CONT)
   MAX. CONTACT FORCE ERROR 66.8850E-03  AT NODE DET-1.559 OF CONTACT PAIR 
   (ASSEMBLY_DET-1_CONT1,ASSEMBLY_PLATE-1_CONT)
          THE CONTACT CONSTRAINT ERRORS ARE WITHIN THE TOLERANCES.

 AVERAGE FORCE                      1.357E+03   TIME AVG. FORCE       1.213E+03
 LARGEST RESIDUAL FORCE             -89.0       AT NODE        546   DOF  1
   INSTANCE: DET-1                                                                           
 LARGEST INCREMENT OF DISP.        -0.713       AT NODE          2   DOF  2
   INSTANCE: PLATE-1                                                                         
 LARGEST CORRECTION TO DISP.       -1.847E-02   AT NODE        166   DOF  2
   INSTANCE: DET-1                                                                           
          FORCE     EQUILIBRIUM NOT ACHIEVED WITHIN TOLERANCE.

 AVERAGE MOMENT                     2.598E+04   TIME AVG. MOMENT      2.278E+04
 ALL MOMENT    RESIDUALS ARE ZERO
 LARGEST INCREMENT OF ROTATION     -2.062E-32   AT NODE          1   DOF  6
   INSTANCE: BASE-1                                                                          
 LARGEST CORRECTION TO ROTATION     5.808E-31   AT NODE          1   DOF  6
   INSTANCE: BASE-1                                                                          
          THE MOMENT    EQUILIBRIUM EQUATIONS HAVE CONVERGED

  NUMBER OF EQUATIONS =     1763     NUMBER OF FLOATING PT. OPERATIONS =  4.25E+06

     CHECK POINT   START OF SOLVER    

     CHECK POINT  END OF SOLVER       

       ELAPSED USER TIME (SEC)      =   0.0000    
       ELAPSED SYSTEM TIME (SEC)    =   0.0000    
       ELAPSED TOTAL CPU TIME (SEC) =   0.0000    
       ELAPSED WALLCLOCK TIME (SEC) =          0

               CONVERGENCE CHECKS FOR EQUILIBRIUM ITERATION     1

   MAX. PENETRATION ERROR 447.191E-12   AT NODE DET-1.557 OF CONTACT PAIR 
   (ASSEMBLY_DET-1_CONT1,ASSEMBLY_PLATE-1_CONT)
   MAX. CONTACT FORCE ERROR 950.819E-06   AT NODE DET-1.557 OF CONTACT PAIR 
   (ASSEMBLY_DET-1_CONT1,ASSEMBLY_PLATE-1_CONT)
          THE CONTACT CONSTRAINTS HAVE CONVERGED.

 AVERAGE FORCE                      1.356E+03   TIME AVG. FORCE       1.213E+03
 LARGEST RESIDUAL FORCE             -3.26       AT NODE        536   DOF  2
   INSTANCE: DET-1                                                                           
 LARGEST INCREMENT OF DISP.        -0.713       AT NODE          2   DOF  2
   INSTANCE: PLATE-1                                                                         
 LARGEST CORRECTION TO DISP.       -7.166E-04   AT NODE        134   DOF  2
   INSTANCE: DET-1                                                                           
          THE FORCE     EQUILIBRIUM EQUATIONS HAVE CONVERGED

 AVERAGE MOMENT                     2.597E+04   TIME AVG. MOMENT      2.278E+04
 ALL MOMENT    RESIDUALS ARE ZERO
 LARGEST INCREMENT OF ROTATION     -3.063E-31   AT NODE          1   DOF  6
   INSTANCE: BASE-1                                                                          
 LARGEST CORRECTION TO ROTATION    -2.857E-31   AT NODE          1   DOF  6
   INSTANCE: BASE-1                                                                          
          THE MOMENT    EQUILIBRIUM RESPONSE WAS LINEAR IN THIS INCREMENT
          TIME INCREMENT MAY NOW INCREASE TO    6.407E-02

 ITERATION SUMMARY FOR THE INCREMENT:   2 TOTAL ITERATIONS, OF WHICH
   1 ARE SEVERE DISCONTINUITY ITERATIONS AND  1 ARE EQUILIBRIUM ITERATIONS.

 TIME INCREMENT COMPLETED  4.271E-02,  FRACTION OF STEP COMPLETED  0.133    
 STEP TIME COMPLETED       0.133    ,  TOTAL TIME COMPLETED        0.133    


  INCREMENT    12 STARTS. ATTEMPT NUMBER  1, TIME INCREMENT  6.407E-02

                    1 SEVERE DISCONTINUITIES OCCURRED DURING INCREMENT ATTEMPT INITIALIZATION.
                    1 POINTS CHANGED FROM STICKING TO SLIPPING

  NUMBER OF EQUATIONS =     1763     NUMBER OF FLOATING PT. OPERATIONS =  4.25E+06

     CHECK POINT   START OF SOLVER    

     CHECK POINT  END OF SOLVER       

       ELAPSED USER TIME (SEC)      =  0.10000    
       ELAPSED SYSTEM TIME (SEC)    =   0.0000    
       ELAPSED TOTAL CPU TIME (SEC) =  0.10000    
       ELAPSED WALLCLOCK TIME (SEC) =          0

                    1 SEVERE DISCONTINUITIES OCCURRED DURING THIS ITERATION.
                    1 POINTS CHANGED FROM SLIPPING TO STICKING

               CONVERGENCE CHECKS FOR SEVERE DISCONTINUITY ITERATION     1

   MAX. PENETRATION ERROR 8.23903E-09 AT NODE DET-1.559 OF CONTACT PAIR 
   (ASSEMBLY_DET-1_CONT1,ASSEMBLY_PLATE-1_CONT)
   MAX. CONTACT FORCE ERROR -26.1192E-03  AT NODE DET-1.560 OF CONTACT PAIR 
   (ASSEMBLY_DET-1_CONT1,ASSEMBLY_PLATE-1_CONT)
          THE CONTACT CONSTRAINT ERRORS ARE WITHIN THE TOLERANCES.

 AVERAGE FORCE                      1.395E+03   TIME AVG. FORCE       1.228E+03
 LARGEST RESIDUAL FORCE              262.       AT NODE         10   DOF  1
   INSTANCE: DET-1                                                                           
 LARGEST INCREMENT OF DISP.         -1.07       AT NODE          2   DOF  2
   INSTANCE: PLATE-1                                                                         
 LARGEST CORRECTION TO DISP.       -2.705E-02   AT NODE        166   DOF  2
   INSTANCE: DET-1                                                                           
          FORCE     EQUILIBRIUM NOT ACHIEVED WITHIN TOLERANCE.

 AVERAGE MOMENT                     2.671E+04   TIME AVG. MOMENT      2.311E+04
 ALL MOMENT    RESIDUALS ARE ZERO
 LARGEST INCREMENT OF ROTATION      1.460E-31   AT NODE          1   DOF  6
   INSTANCE: BASE-1                                                                          
 LARGEST CORRECTION TO ROTATION     6.055E-31   AT NODE          1   DOF  6
   INSTANCE: BASE-1                                                                          
          THE MOMENT    EQUILIBRIUM EQUATIONS HAVE CONVERGED

  NUMBER OF EQUATIONS =     1763     NUMBER OF FLOATING PT. OPERATIONS =  4.25E+06

     CHECK POINT   START OF SOLVER    

     CHECK POINT  END OF SOLVER       

       ELAPSED USER TIME (SEC)      =   0.0000    
       ELAPSED SYSTEM TIME (SEC)    =   0.0000    
       ELAPSED TOTAL CPU TIME (SEC) =   0.0000    
       ELAPSED WALLCLOCK TIME (SEC) =          0

               CONVERGENCE CHECKS FOR EQUILIBRIUM ITERATION     1

   MAX. PENETRATION ERROR -322.901E-12   AT NODE DET-1.9 OF CONTACT PAIR 
   (ASSEMBLY_DET-1_CONT2,ASSEMBLY_BASE-1_RIGIDSURFACE_)
   MAX. CONTACT FORCE ERROR -786.724E-06   AT NODE DET-1.9 OF CONTACT PAIR 
   (ASSEMBLY_DET-1_CONT2,ASSEMBLY_BASE-1_RIGIDSURFACE_)
          THE CONTACT CONSTRAINTS HAVE CONVERGED.

 AVERAGE FORCE                      1.393E+03   TIME AVG. FORCE       1.228E+03
 LARGEST RESIDUAL FORCE             -11.2       AT NODE          8   DOF  1
   INSTANCE: DET-1                                                                           
 LARGEST INCREMENT OF DISP.         -1.07       AT NODE          2   DOF  2
   INSTANCE: PLATE-1                                                                         
 LARGEST CORRECTION TO DISP.       -1.355E-03   AT NODE        100   DOF  2
   INSTANCE: DET-1                                                                           
          FORCE     EQUILIBRIUM NOT ACHIEVED WITHIN TOLERANCE.

 AVERAGE MOMENT                     2.670E+04   TIME AVG. MOMENT      2.311E+04
 ALL MOMENT    RESIDUALS ARE ZERO
 LARGEST INCREMENT OF ROTATION     -1.476E-31   AT NODE          1   DOF  6
   INSTANCE: BASE-1                                                                          
 LARGEST CORRECTION TO ROTATION    -2.936E-31   AT NODE          1   DOF  6
   INSTANCE: BASE-1                                                                          
          THE MOMENT    EQUILIBRIUM RESPONSE WAS LINEAR IN THIS INCREMENT

  NUMBER OF EQUATIONS =     1763     NUMBER OF FLOATING PT. OPERATIONS =  4.25E+06

     CHECK POINT   START OF SOLVER    

     CHECK POINT  END OF SOLVER       

[...]
   INSTANCE: PLATE-1                                                                         
          THE FORCE     EQUILIBRIUM RESPONSE WAS LINEAR IN THIS INCREMENT

 AVERAGE MOMENT                      0.00       TIME AVG. MOMENT      1.389E+04
 ALL MOMENT    RESIDUALS ARE ZERO
 LARGEST INCREMENT OF ROTATION       0.00       AT NODE          1   DOF  6
   INSTANCE: BASE-1                                                                          
 LARGEST CORRECTION TO ROTATION      0.00       AT NODE          1   DOF  6
   INSTANCE: BASE-1                                                                          
          THERE IS ZERO MOMENT    EVERYWHERE

 ITERATION SUMMARY FOR THE INCREMENT:   1 TOTAL ITERATIONS, OF WHICH
   0 ARE SEVERE DISCONTINUITY ITERATIONS AND  1 ARE EQUILIBRIUM ITERATIONS.

 TIME INCREMENT COMPLETED  1.000E-02,  FRACTION OF STEP COMPLETED  0.914    
 STEP TIME COMPLETED       0.914    ,  TOTAL TIME COMPLETED         1.91    


  INCREMENT    98 STARTS. ATTEMPT NUMBER  1, TIME INCREMENT  1.000E-02

  NUMBER OF EQUATIONS =     1763     NUMBER OF FLOATING PT. OPERATIONS =  3.54E+06

     CHECK POINT   START OF SOLVER    

     CHECK POINT  END OF SOLVER       

       ELAPSED USER TIME (SEC)      =   0.0000    
       ELAPSED SYSTEM TIME (SEC)    =   0.0000    
       ELAPSED TOTAL CPU TIME (SEC) =   0.0000    
       ELAPSED WALLCLOCK TIME (SEC) =          0

               CONVERGENCE CHECKS FOR EQUILIBRIUM ITERATION     1


 AVERAGE FORCE                       213.       TIME AVG. FORCE        225.    
 LARGEST RESIDUAL FORCE            -2.047E-09   AT NODE        145   DOF  2
   INSTANCE: PLATE-1                                                                         
 LARGEST INCREMENT OF DISP.         0.167       AT NODE         67   DOF  2
   INSTANCE: PLATE-1                                                                         
 LARGEST CORRECTION TO DISP.       -3.114E-16   AT NODE          1   DOF  2
   INSTANCE: PLATE-1                                                                         
          THE FORCE     EQUILIBRIUM RESPONSE WAS LINEAR IN THIS INCREMENT

 AVERAGE MOMENT                      0.00       TIME AVG. MOMENT      1.389E+04
 ALL MOMENT    RESIDUALS ARE ZERO
 LARGEST INCREMENT OF ROTATION       0.00       AT NODE          1   DOF  6
   INSTANCE: BASE-1                                                                          
 LARGEST CORRECTION TO ROTATION      0.00       AT NODE          1   DOF  6
   INSTANCE: BASE-1                                                                          
          THERE IS ZERO MOMENT    EVERYWHERE

 ITERATION SUMMARY FOR THE INCREMENT:   1 TOTAL ITERATIONS, OF WHICH
   0 ARE SEVERE DISCONTINUITY ITERATIONS AND  1 ARE EQUILIBRIUM ITERATIONS.

 TIME INCREMENT COMPLETED  1.000E-02,  FRACTION OF STEP COMPLETED  0.924    
 STEP TIME COMPLETED       0.924    ,  TOTAL TIME COMPLETED         1.92    


  INCREMENT    99 STARTS. ATTEMPT NUMBER  1, TIME INCREMENT  1.000E-02

  NUMBER OF EQUATIONS =     1763     NUMBER OF FLOATING PT. OPERATIONS =  3.54E+06

     CHECK POINT   START OF SOLVER    

     CHECK POINT  END OF SOLVER       

       ELAPSED USER TIME (SEC)      =   0.0000    
       ELAPSED SYSTEM TIME (SEC)    =   0.0000    
       ELAPSED TOTAL CPU TIME (SEC) =   0.0000    
       ELAPSED WALLCLOCK TIME (SEC) =          0

               CONVERGENCE CHECKS FOR EQUILIBRIUM ITERATION     1


 AVERAGE FORCE                       213.       TIME AVG. FORCE        224.    
 LARGEST RESIDUAL FORCE            -1.807E-09   AT NODE        123   DOF  2
   INSTANCE: PLATE-1                                                                         
 LARGEST INCREMENT OF DISP.         0.167       AT NODE          1   DOF  2
   INSTANCE: PLATE-1                                                                         
 LARGEST CORRECTION TO DISP.        3.937E-16   AT NODE        551   DOF  2
   INSTANCE: DET-1                                                                           
          THE FORCE     EQUILIBRIUM RESPONSE WAS LINEAR IN THIS INCREMENT

 AVERAGE MOMENT                      0.00       TIME AVG. MOMENT      1.389E+04
 ALL MOMENT    RESIDUALS ARE ZERO
 LARGEST INCREMENT OF ROTATION       0.00       AT NODE          1   DOF  6
   INSTANCE: BASE-1                                                                          
 LARGEST CORRECTION TO ROTATION      0.00       AT NODE          1   DOF  6
   INSTANCE: BASE-1                                                                          
          THERE IS ZERO MOMENT    EVERYWHERE

 ITERATION SUMMARY FOR THE INCREMENT:   1 TOTAL ITERATIONS, OF WHICH
   0 ARE SEVERE DISCONTINUITY ITERATIONS AND  1 ARE EQUILIBRIUM ITERATIONS.

 TIME INCREMENT COMPLETED  1.000E-02,  FRACTION OF STEP COMPLETED  0.934    
 STEP TIME COMPLETED       0.934    ,  TOTAL TIME COMPLETED         1.93    


  INCREMENT   100 STARTS. ATTEMPT NUMBER  1, TIME INCREMENT  1.000E-02

  NUMBER OF EQUATIONS =     1763     NUMBER OF FLOATING PT. OPERATIONS =  3.54E+06

     CHECK POINT   START OF SOLVER    

     CHECK POINT  END OF SOLVER       

       ELAPSED USER TIME (SEC)      =  0.10000    
       ELAPSED SYSTEM TIME (SEC)    =   0.0000    
       ELAPSED TOTAL CPU TIME (SEC) =  0.10000    
       ELAPSED WALLCLOCK TIME (SEC) =          0

               CONVERGENCE CHECKS FOR EQUILIBRIUM ITERATION     1


 AVERAGE FORCE                       213.       TIME AVG. FORCE        224.    
 LARGEST RESIDUAL FORCE             1.653E-09   AT NODE        251   DOF  2
   INSTANCE: PLATE-1                                                                         
 LARGEST INCREMENT OF DISP.         0.167       AT NODE          1   DOF  2
   INSTANCE: PLATE-1                                                                         
 LARGEST CORRECTION TO DISP.       -1.629E-16   AT NODE          5   DOF  2
   INSTANCE: PLATE-1                                                                         
          THE FORCE     EQUILIBRIUM RESPONSE WAS LINEAR IN THIS INCREMENT

 AVERAGE MOMENT                      0.00       TIME AVG. MOMENT      1.389E+04
 ALL MOMENT    RESIDUALS ARE ZERO
 LARGEST INCREMENT OF ROTATION       0.00       AT NODE          1   DOF  6
   INSTANCE: BASE-1                                                                          
 LARGEST CORRECTION TO ROTATION      0.00       AT NODE          1   DOF  6
   INSTANCE: BASE-1                                                                          
          THERE IS ZERO MOMENT    EVERYWHERE

 ITERATION SUMMARY FOR THE INCREMENT:   1 TOTAL ITERATIONS, OF WHICH
   0 ARE SEVERE DISCONTINUITY ITERATIONS AND  1 ARE EQUILIBRIUM ITERATIONS.

 TIME INCREMENT COMPLETED  1.000E-02,  FRACTION OF STEP COMPLETED  0.944    
 STEP TIME COMPLETED       0.944    ,  TOTAL TIME COMPLETED         1.94    


  INCREMENT   101 STARTS. ATTEMPT NUMBER  1, TIME INCREMENT  1.000E-02

  NUMBER OF EQUATIONS =     1763     NUMBER OF FLOATING PT. OPERATIONS =  3.54E+06

     CHECK POINT   START OF SOLVER    

     CHECK POINT  END OF SOLVER       

       ELAPSED USER TIME (SEC)      =   0.0000    
       ELAPSED SYSTEM TIME (SEC)    =   0.0000    
       ELAPSED TOTAL CPU TIME (SEC) =   0.0000    
       ELAPSED WALLCLOCK TIME (SEC) =          0

               CONVERGENCE CHECKS FOR EQUILIBRIUM ITERATION     1


 AVERAGE FORCE                       213.       TIME AVG. FORCE        224.    
 LARGEST RESIDUAL FORCE             1.911E-09   AT NODE        234   DOF  2
   INSTANCE: PLATE-1                                                                         
 LARGEST INCREMENT OF DISP.         0.167       AT NODE         62   DOF  2
   INSTANCE: PLATE-1                                                                         
 LARGEST CORRECTION TO DISP.        3.674E-16   AT NODE        243   DOF  2
   INSTANCE: DET-1                                                                           
          THE FORCE     EQUILIBRIUM RESPONSE WAS LINEAR IN THIS INCREMENT

 AVERAGE MOMENT                      0.00       TIME AVG. MOMENT      1.389E+04
 ALL MOMENT    RESIDUALS ARE ZERO
 LARGEST INCREMENT OF ROTATION       0.00       AT NODE          1   DOF  6
   INSTANCE: BASE-1                                                                          
 LARGEST CORRECTION TO ROTATION      0.00       AT NODE          1   DOF  6
   INSTANCE: BASE-1                                                                          
          THERE IS ZERO MOMENT    EVERYWHERE

 ITERATION SUMMARY FOR THE INCREMENT:   1 TOTAL ITERATIONS, OF WHICH
   0 ARE SEVERE DISCONTINUITY ITERATIONS AND  1 ARE EQUILIBRIUM ITERATIONS.

 TIME INCREMENT COMPLETED  1.000E-02,  FRACTION OF STEP COMPLETED  0.954    
 STEP TIME COMPLETED       0.954    ,  TOTAL TIME COMPLETED         1.95    


  INCREMENT   102 STARTS. ATTEMPT NUMBER  1, TIME INCREMENT  1.000E-02

  NUMBER OF EQUATIONS =     1763     NUMBER OF FLOATING PT. OPERATIONS =  3.54E+06

     CHECK POINT   START OF SOLVER    

     CHECK POINT  END OF SOLVER       

       ELAPSED USER TIME (SEC)      =   0.0000    
       ELAPSED SYSTEM TIME (SEC)    =   0.0000    
       ELAPSED TOTAL CPU TIME (SEC) =   0.0000    
       ELAPSED WALLCLOCK TIME (SEC) =          0

               CONVERGENCE CHECKS FOR EQUILIBRIUM ITERATION     1


 AVERAGE FORCE                       213.       TIME AVG. FORCE        224.    
 LARGEST RESIDUAL FORCE            -1.716E-09   AT NODE        305   DOF  2
   INSTANCE: PLATE-1                                                                         
 LARGEST INCREMENT OF DISP.         0.167       AT NODE          1   DOF  2
   INSTANCE: PLATE-1                                                                         
 LARGEST CORRECTION TO DISP.        1.528E-15   AT NODE        210   DOF  2
   INSTANCE: DET-1                                                                           
          THE FORCE     EQUILIBRIUM RESPONSE WAS LINEAR IN THIS INCREMENT

 AVERAGE MOMENT                      0.00       TIME AVG. MOMENT      1.389E+04
 ALL MOMENT    RESIDUALS ARE ZERO
 LARGEST INCREMENT OF ROTATION       0.00       AT NODE          1   DOF  6
   INSTANCE: BASE-1                                                                          
 LARGEST CORRECTION TO ROTATION      0.00       AT NODE          1   DOF  6
   INSTANCE: BASE-1                                                                          
          THERE IS ZERO MOMENT    EVERYWHERE

 ITERATION SUMMARY FOR THE INCREMENT:   1 TOTAL ITERATIONS, OF WHICH
   0 ARE SEVERE DISCONTINUITY ITERATIONS AND  1 ARE EQUILIBRIUM ITERATIONS.

 TIME INCREMENT COMPLETED  1.000E-02,  FRACTION OF STEP COMPLETED  0.964    
 STEP TIME COMPLETED       0.964    ,  TOTAL TIME COMPLETED         1.96    


  INCREMENT   103 STARTS. ATTEMPT NUMBER  1, TIME INCREMENT  1.000E-02

  NUMBER OF EQUATIONS =     1763     NUMBER OF FLOATING PT. OPERATIONS =  3.54E+06

     CHECK POINT   START OF SOLVER    

     CHECK POINT  END OF SOLVER       

       ELAPSED USER TIME (SEC)      =   0.0000    
       ELAPSED SYSTEM TIME (SEC)    =   0.0000    
       ELAPSED TOTAL CPU TIME (SEC) =   0.0000    
       ELAPSED WALLCLOCK TIME (SEC) =          0

               CONVERGENCE CHECKS FOR EQUILIBRIUM ITERATION     1


 AVERAGE FORCE                       213.       TIME AVG. FORCE        224.    
 LARGEST RESIDUAL FORCE             2.661E-09   AT NODE        189   DOF  2
   INSTANCE: PLATE-1                                                                         
 LARGEST INCREMENT OF DISP.         0.167       AT NODE         63   DOF  2
   INSTANCE: PLATE-1                                                                         
 LARGEST CORRECTION TO DISP.       -2.171E-15   AT NODE        188   DOF  2
   INSTANCE: DET-1                                                                           
          THE FORCE     EQUILIBRIUM RESPONSE WAS LINEAR IN THIS INCREMENT

 AVERAGE MOMENT                      0.00       TIME AVG. MOMENT      1.389E+04
 ALL MOMENT    RESIDUALS ARE ZERO
 LARGEST INCREMENT OF ROTATION       0.00       AT NODE          1   DOF  6
   INSTANCE: BASE-1                                                                          
 LARGEST CORRECTION TO ROTATION      0.00       AT NODE          1   DOF  6
   INSTANCE: BASE-1                                                                          
          THERE IS ZERO MOMENT    EVERYWHERE

 ITERATION SUMMARY FOR THE INCREMENT:   1 TOTAL ITERATIONS, OF WHICH
   0 ARE SEVERE DISCONTINUITY ITERATIONS AND  1 ARE EQUILIBRIUM ITERATIONS.

 TIME INCREMENT COMPLETED  1.000E-02,  FRACTION OF STEP COMPLETED  0.974    
 STEP TIME COMPLETED       0.974    ,  TOTAL TIME COMPLETED         1.97    


  INCREMENT   104 STARTS. ATTEMPT NUMBER  1, TIME INCREMENT  1.000E-02

  NUMBER OF EQUATIONS =     1763     NUMBER OF FLOATING PT. OPERATIONS =  3.54E+06

     CHECK POINT   START OF SOLVER    

     CHECK POINT  END OF SOLVER       

       ELAPSED USER TIME (SEC)      =   0.0000    
       ELAPSED SYSTEM TIME (SEC)    =   0.0000    
       ELAPSED TOTAL CPU TIME (SEC) =   0.0000    
       ELAPSED WALLCLOCK TIME (SEC) =          0

               CONVERGENCE CHECKS FOR EQUILIBRIUM ITERATION     1


 AVERAGE FORCE                       213.       TIME AVG. FORCE        224.    
 LARGEST RESIDUAL FORCE            -2.175E-09   AT NODE        128   DOF  2
   INSTANCE: PLATE-1                                                                         
 LARGEST INCREMENT OF DISP.         0.167       AT NODE         22   DOF  2
   INSTANCE: PLATE-1                                                                         
 LARGEST CORRECTION TO DISP.        7.126E-16   AT NODE        331   DOF  2
   INSTANCE: DET-1                                                                           
          THE FORCE     EQUILIBRIUM RESPONSE WAS LINEAR IN THIS INCREMENT

 AVERAGE MOMENT                      0.00       TIME AVG. MOMENT      1.389E+04
 ALL MOMENT    RESIDUALS ARE ZERO
 LARGEST INCREMENT OF ROTATION       0.00       AT NODE          1   DOF  6
   INSTANCE: BASE-1                                                                          
 LARGEST CORRECTION TO ROTATION      0.00       AT NODE          1   DOF  6
   INSTANCE: BASE-1                                                                          
          THERE IS ZERO MOMENT    EVERYWHERE

 ITERATION SUMMARY FOR THE INCREMENT:   1 TOTAL ITERATIONS, OF WHICH
   0 ARE SEVERE DISCONTINUITY ITERATIONS AND  1 ARE EQUILIBRIUM ITERATIONS.

 TIME INCREMENT COMPLETED  1.000E-02,  FRACTION OF STEP COMPLETED  0.984    
 STEP TIME COMPLETED       0.984    ,  TOTAL TIME COMPLETED         1.98    


  INCREMENT   105 STARTS. ATTEMPT NUMBER  1, TIME INCREMENT  1.000E-02

  NUMBER OF EQUATIONS =     1763     NUMBER OF FLOATING PT. OPERATIONS =  3.54E+06

     CHECK POINT   START OF SOLVER    

     CHECK POINT  END OF SOLVER       

       ELAPSED USER TIME (SEC)      =   0.0000    
       ELAPSED SYSTEM TIME (SEC)    =   0.0000    
       ELAPSED TOTAL CPU TIME (SEC) =   0.0000    
       ELAPSED WALLCLOCK TIME (SEC) =          0

               CONVERGENCE CHECKS FOR EQUILIBRIUM ITERATION     1


 AVERAGE FORCE                       213.       TIME AVG. FORCE        224.    
 LARGEST RESIDUAL FORCE            -1.883E-09   AT NODE        234   DOF  2
   INSTANCE: PLATE-1                                                                         
 LARGEST INCREMENT OF DISP.         0.167       AT NODE         63   DOF  2
   INSTANCE: PLATE-1                                                                         
 LARGEST CORRECTION TO DISP.       -1.434E-15   AT NODE        221   DOF  2
   INSTANCE: DET-1                                                                           
          THE FORCE     EQUILIBRIUM RESPONSE WAS LINEAR IN THIS INCREMENT

 AVERAGE MOMENT                      0.00       TIME AVG. MOMENT      1.389E+04
 ALL MOMENT    RESIDUALS ARE ZERO
 LARGEST INCREMENT OF ROTATION       0.00       AT NODE          1   DOF  6
   INSTANCE: BASE-1                                                                          
 LARGEST CORRECTION TO ROTATION      0.00       AT NODE          1   DOF  6
   INSTANCE: BASE-1                                                                          
          THERE IS ZERO MOMENT    EVERYWHERE

 ITERATION SUMMARY FOR THE INCREMENT:   1 TOTAL ITERATIONS, OF WHICH
   0 ARE SEVERE DISCONTINUITY ITERATIONS AND  1 ARE EQUILIBRIUM ITERATIONS.

 TIME INCREMENT COMPLETED  1.000E-02,  FRACTION OF STEP COMPLETED  0.994    
 STEP TIME COMPLETED       0.994    ,  TOTAL TIME COMPLETED         1.99    


  INCREMENT   106 STARTS. ATTEMPT NUMBER  1, TIME INCREMENT  5.518E-03

  NUMBER OF EQUATIONS =     1763     NUMBER OF FLOATING PT. OPERATIONS =  3.54E+06

     CHECK POINT   START OF SOLVER    

     CHECK POINT  END OF SOLVER       

       ELAPSED USER TIME (SEC)      =   0.0000    
       ELAPSED SYSTEM TIME (SEC)    =   0.0000    
       ELAPSED TOTAL CPU TIME (SEC) =   0.0000    
       ELAPSED WALLCLOCK TIME (SEC) =          0

               CONVERGENCE CHECKS FOR EQUILIBRIUM ITERATION     1


 AVERAGE FORCE                       213.       TIME AVG. FORCE        224.    
 LARGEST RESIDUAL FORCE             6.393E-10   AT NODE        266   DOF  2
   INSTANCE: PLATE-1                                                                         
 LARGEST INCREMENT OF DISP.         9.214E-02   AT NODE          5   DOF  2
   INSTANCE: PLATE-1                                                                         
 LARGEST CORRECTION TO DISP.       -1.654E-15   AT NODE        210   DOF  2
   INSTANCE: DET-1                                                                           
          THE FORCE     EQUILIBRIUM RESPONSE WAS LINEAR IN THIS INCREMENT

 AVERAGE MOMENT                      0.00       TIME AVG. MOMENT      1.389E+04
 ALL MOMENT    RESIDUALS ARE ZERO
 LARGEST INCREMENT OF ROTATION       0.00       AT NODE          1   DOF  6
   INSTANCE: BASE-1                                                                          
 LARGEST CORRECTION TO ROTATION      0.00       AT NODE          1   DOF  6
   INSTANCE: BASE-1                                                                          
          THERE IS ZERO MOMENT    EVERYWHERE

 ITERATION SUMMARY FOR THE INCREMENT:   1 TOTAL ITERATIONS, OF WHICH
   0 ARE SEVERE DISCONTINUITY ITERATIONS AND  1 ARE EQUILIBRIUM ITERATIONS.

 TIME INCREMENT COMPLETED  5.518E-03,  FRACTION OF STEP COMPLETED   1.00    
 STEP TIME COMPLETED        1.00    ,  TOTAL TIME COMPLETED         2.00    


          THE ANALYSIS HAS BEEN COMPLETED



     ANALYSIS SUMMARY:
     TOTAL OF        126  INCREMENTS
                       5  CUTBACKS IN AUTOMATIC INCREMENTATION
                     197  ITERATIONS INCLUDING CONTACT ITERATIONS IF PRESENT
                     197  PASSES THROUGH THE EQUATION SOLVER OF WHICH 
                     197  INVOLVE MATRIX DECOMPOSITION, INCLUDING
                       0  DECOMPOSITION(S) OF THE MASS MATRIX
                       1  REORDERING OF EQUATIONS TO MINIMIZE WAVEFRONT
                       0  ADDITIONAL RESIDUAL EVALUATIONS FOR LINE SEARCHES
                       0  ADDITIONAL OPERATOR EVALUATIONS FOR LINE SEARCHES
                      13  WARNING MESSAGES DURING USER INPUT PROCESSING
                      43  WARNING MESSAGES DURING ANALYSIS
                       0  ANALYSIS WARNINGS ARE NUMERICAL PROBLEM MESSAGES
                       4  ANALYSIS WARNINGS ARE NEGATIVE EIGENVALUE MESSAGES
                       0  ERROR MESSAGES



     JOB TIME SUMMARY
       USER TIME (SEC)      =   11.700    
       SYSTEM TIME (SEC)    =  0.80000    
       TOTAL CPU TIME (SEC) =   12.500    
       WALLCLOCK TIME (SEC) =         13
