 Abaqus/Standard Student Edition 6.13-2                  DATE 20-ноя-2019 TIME 13:52:05
 SUMMARY OF JOB INFORMATION:
 STEP  INC ATT SEVERE EQUIL TOTAL  TOTAL      STEP       INC OF       DOF    IF
               DISCON ITERS ITERS  TIME/    TIME/LPF    TIME/LPF    MONITOR RIKS
               ITERS               FREQ
   1     1   1U    3     3     6  0.000      0.000      0.01000   
   1     1   2     0     3     3  0.00250    0.00250    0.002500  
   1     2   1     1     2     3  0.00500    0.00500    0.002500  
   1     3   1     1     5     6  0.00875    0.00875    0.003750  
   1     4   1     1     2     3  0.0125     0.0125     0.003750  
   1     5   1     0     2     2  0.0163     0.0163     0.003750  
   1     6   1     0     1     1  0.0219     0.0219     0.005625  
   1     7   1     0     1     1  0.0303     0.0303     0.008438  
   1     8   1     0     2     2  0.0430     0.0430     0.01266   
   1     9   1     0     2     2  0.0620     0.0620     0.01898   
   1    10   1     0     2     2  0.0904     0.0904     0.02848   
   1    11   1     1     1     2  0.133      0.133      0.04271   
   1    12   1     1     2     3  0.197      0.197      0.06407   
   1    13   1     1     2     3  0.293      0.293      0.09611   
   1    14   1     1     2     3  0.437      0.437      0.1442    
   1    15   1     4     1     5  0.654      0.654      0.2162    
   1    16   1U    1     1     2  0.654      0.654      0.3244    
   1    16   2     1     2     3  0.735      0.735      0.08109   
   1    17   1     0     4     4  0.856      0.856      0.1216    
   1    18   1U    5     0     5  0.856      0.856      0.1435    
   1    18   2     2     1     3  0.892      0.892      0.03588   
   1    19   1     0     2     2  0.946      0.946      0.05383   
   1    20   1     0     3     3  1.00       1.00       0.05383   
   2     1   1U    3     1     4  1.00       0.000      0.01000   
   2     1   2     1     2     3  1.00       0.00250    0.002500  
   2     2   1     2     1     3  1.00       0.00500    0.002500  
   2     3   1U    4     0     4  1.00       0.00500    0.003750  
   2     3   2     2     1     3  1.01       0.00594    0.0009375 
   2     4   1     7     1     8  1.01       0.00734    0.001406  
   2     5   1     0     2     2  1.01       0.00945    0.002109  
   2     6   1     0     1     1  1.01       0.0126     0.003164  
   2     7   1     0     1     1  1.02       0.0174     0.004746  
   2     8   1     0     1     1  1.02       0.0245     0.007119  
   2     9   1     0     1     1  1.03       0.0345     0.01000   
   2    10   1     0     1     1  1.04       0.0445     0.01000   
   2    11   1     0     1     1  1.05       0.0545     0.01000   
   2    12   1     0     1     1  1.06       0.0645     0.01000   
   2    13   1     0     1     1  1.07       0.0745     0.01000   
   2    14   1     0     1     1  1.08       0.0845     0.01000   
   2    15   1     0     1     1  1.09       0.0945     0.01000   
   2    16   1     0     1     1  1.10       0.104      0.01000   
   2    17   1     0     1     1  1.11       0.114      0.01000   
   2    18   1     0     1     1  1.12       0.124      0.01000   
   2    19   1     0     1     1  1.13       0.134      0.01000   
   2    20   1     0     1     1  1.14       0.144      0.01000   
   2    21   1     0     1     1  1.15       0.154      0.01000   
   2    22   1     0     1     1  1.16       0.164      0.01000   
   2    23   1     0     1     1  1.17       0.174      0.01000   
   2    24   1     0     1     1  1.18       0.184      0.01000   
   2    25   1     0     1     1  1.19       0.194      0.01000   
   2    26   1     0     1     1  1.20       0.204      0.01000   
   2    27   1     0     1     1  1.21       0.214      0.01000   
   2    28   1     0     1     1  1.22       0.224      0.01000   
   2    29   1     0     1     1  1.23       0.234      0.01000   
   2    30   1     0     1     1  1.24       0.244      0.01000   
   2    31   1     0     1     1  1.25       0.254      0.01000   
   2    32   1     0     1     1  1.26       0.264      0.01000   
   2    33   1     0     1     1  1.27       0.274      0.01000   
   2    34   1     0     1     1  1.28       0.284      0.01000   
   2    35   1     0     1     1  1.29       0.294      0.01000   
   2    36   1     0     1     1  1.30       0.304      0.01000   
   2    37   1     0     1     1  1.31       0.314      0.01000   
   2    38   1     0     1     1  1.32       0.324      0.01000   
   2    39   1     0     1     1  1.33       0.334      0.01000   
   2    40   1     0     1     1  1.34       0.344      0.01000   
   2    41   1     0     1     1  1.35       0.354      0.01000   
   2    42   1     0     1     1  1.36       0.364      0.01000   
   2    43   1     0     1     1  1.37       0.374      0.01000   
   2    44   1     0     1     1  1.38       0.384      0.01000   
   2    45   1     0     1     1  1.39       0.394      0.01000   
   2    46   1     0     1     1  1.40       0.404      0.01000   
   2    47   1     0     1     1  1.41       0.414      0.01000   
   2    48   1     0     1     1  1.42       0.424      0.01000   
   2    49   1     0     1     1  1.43       0.434      0.01000   
   2    50   1     0     1     1  1.44       0.444      0.01000   
   2    51   1     0     1     1  1.45       0.454      0.01000   
   2    52   1     0     1     1  1.46       0.464      0.01000   
   2    53   1     0     1     1  1.47       0.474      0.01000   
   2    54   1     0     1     1  1.48       0.484      0.01000   
   2    55   1     0     1     1  1.49       0.494      0.01000   
   2    56   1     0     1     1  1.50       0.504      0.01000   
   2    57   1     0     1     1  1.51       0.514      0.01000   
   2    58   1     0     1     1  1.52       0.524      0.01000   
   2    59   1     0     1     1  1.53       0.534      0.01000   
   2    60   1     0     1     1  1.54       0.544      0.01000   
   2    61   1     0     1     1  1.55       0.554      0.01000   
   2    62   1     0     1     1  1.56       0.564      0.01000   
   2    63   1     0     1     1  1.57       0.574      0.01000   
   2    64   1     0     1     1  1.58       0.584      0.01000   
   2    65   1     0     1     1  1.59       0.594      0.01000   
   2    66   1     0     1     1  1.60       0.604      0.01000   
   2    67   1     0     1     1  1.61       0.614      0.01000   
   2    68   1     0     1     1  1.62       0.624      0.01000   
   2    69   1     0     1     1  1.63       0.634      0.01000   
   2    70   1     0     1     1  1.64       0.644      0.01000   
   2    71   1     0     1     1  1.65       0.654      0.01000   
   2    72   1     0     1     1  1.66       0.664      0.01000   
   2    73   1     0     1     1  1.67       0.674      0.01000   
   2    74   1     0     1     1  1.68       0.684      0.01000   
   2    75   1     0     1     1  1.69       0.694      0.01000   
   2    76   1     0     1     1  1.70       0.704      0.01000   
   2    77   1     0     1     1  1.71       0.714      0.01000   
   2    78   1     0     1     1  1.72       0.724      0.01000   
   2    79   1     0     1     1  1.73       0.734      0.01000   
   2    80   1     0     1     1  1.74       0.744      0.01000   
   2    81   1     0     1     1  1.75       0.754      0.01000   
   2    82   1     0     1     1  1.76       0.764      0.01000   
   2    83   1     0     1     1  1.77       0.774      0.01000   
   2    84   1     0     1     1  1.78       0.784      0.01000   
   2    85   1     0     1     1  1.79       0.794      0.01000   
   2    86   1     0     1     1  1.80       0.804      0.01000   
   2    87   1     0     1     1  1.81       0.814      0.01000   
   2    88   1     0     1     1  1.82       0.824      0.01000   
   2    89   1     0     1     1  1.83       0.834      0.01000   
   2    90   1     0     1     1  1.84       0.844      0.01000   
   2    91   1     0     1     1  1.85       0.854      0.01000   
   2    92   1     0     1     1  1.86       0.864      0.01000   
   2    93   1     0     1     1  1.87       0.874      0.01000   
   2    94   1     0     1     1  1.88       0.884      0.01000   
   2    95   1     0     1     1  1.89       0.894      0.01000   
   2    96   1     0     1     1  1.90       0.904      0.01000   
   2    97   1     0     1     1  1.91       0.914      0.01000   
   2    98   1     0     1     1  1.92       0.924      0.01000   
   2    99   1     0     1     1  1.93       0.934      0.01000   
   2   100   1     0     1     1  1.94       0.944      0.01000   
   2   101   1     0     1     1  1.95       0.954      0.01000   
   2   102   1     0     1     1  1.96       0.964      0.01000   
   2   103   1     0     1     1  1.97       0.974      0.01000   
   2   104   1     0     1     1  1.98       0.984      0.01000   
   2   105   1     0     1     1  1.99       0.994      0.01000   
   2   106   1     0     1     1  2.00       1.00       0.005518  
                          
 THE ANALYSIS HAS COMPLETED SUCCESSFULLY
